<?xml version="1.0" encoding="UTF-8"?>

<!-- generated on 2025-05-03 14:02:31 by Eclipse SUMO netconvert Version 1.22.0
<netconvertConfiguration xmlns:xsi="http://www.w3.org/2001/XMLSchema-instance" xsi:noNamespaceSchemaLocation="http://sumo.dlr.de/xsd/netconvertConfiguration.xsd">

    <input>
        <type-files value="${SUMO_HOME}/data/typemap/osmNetconvert.typ.xml"/>
        <osm-files value="osm_bbox.osm.xml.gz"/>
    </input>

    <output>
        <output-file value="osm.net.xml.gz"/>
        <output.street-names value="true"/>
        <output.original-names value="true"/>
    </output>

    <projection>
        <proj.utm value="true"/>
    </projection>

    <processing>
        <geometry.remove value="true"/>
        <roundabouts.guess value="true"/>
    </processing>

    <tls_building>
        <tls.discard-simple value="true"/>
        <tls.join value="true"/>
        <tls.guess-signals value="true"/>
        <tls.default-type value="actuated"/>
    </tls_building>

    <ramp_guessing>
        <ramps.guess value="true"/>
    </ramp_guessing>

    <junctions>
        <junctions.join value="true"/>
        <junctions.corner-detail value="5"/>
    </junctions>

</netconvertConfiguration>
-->

<net version="1.20" junctionCornerDetail="5" limitTurnSpeed="5.50" xmlns:xsi="http://www.w3.org/2001/XMLSchema-instance" xsi:noNamespaceSchemaLocation="http://sumo.dlr.de/xsd/net_file.xsd">

    <location netOffset="-411565.94,-6181040.14" convBoundary="0.00,0.00,801.58,668.26" origBoundary="37.590406,55.767069,37.603065,55.772965" projParameter="+proj=utm +zone=37 +ellps=WGS84 +datum=WGS84 +units=m +no_defs"/>

    <type id="highway.footway" priority="1" numLanes="1" speed="2.78" allow="pedestrian" oneway="1" width="2.00"/>
    <type id="highway.path" priority="1" numLanes="1" speed="5.56" allow="pedestrian bicycle" oneway="0" width="2.00"/>
    <type id="highway.pedestrian" priority="1" numLanes="1" speed="2.78" allow="pedestrian" oneway="1" width="2.00"/>
    <type id="highway.primary" priority="12" numLanes="2" speed="27.78" disallow="tram rail_urban rail rail_electric rail_fast ship container cable_car subway aircraft wheelchair scooter drone" oneway="0"/>
    <type id="highway.primary_link" priority="7" numLanes="1" speed="22.22" disallow="tram rail_urban rail rail_electric rail_fast ship container cable_car subway aircraft wheelchair scooter drone" oneway="0"/>
    <type id="highway.residential" priority="3" numLanes="1" speed="13.89" disallow="tram rail_urban rail rail_electric rail_fast ship container cable_car subway aircraft wheelchair scooter drone" oneway="0"/>
    <type id="highway.secondary" priority="11" numLanes="1" speed="27.78" disallow="tram rail_urban rail rail_electric rail_fast ship container cable_car subway aircraft wheelchair scooter drone" oneway="0"/>
    <type id="highway.service" priority="1" numLanes="1" speed="5.56" allow="pedestrian delivery bicycle" oneway="0"/>
    <type id="highway.steps" priority="1" numLanes="1" speed="1.39" allow="pedestrian" oneway="1" width="2.00"/>
    <type id="highway.tertiary" priority="10" numLanes="1" speed="22.22" disallow="tram rail_urban rail rail_electric rail_fast ship container cable_car subway aircraft wheelchair scooter drone" oneway="0"/>
    <type id="highway.unclassified" priority="4" numLanes="1" speed="13.89" disallow="tram rail_urban rail rail_electric rail_fast ship container cable_car subway aircraft wheelchair scooter drone" oneway="0"/>
    <type id="railway.subway" priority="18" numLanes="1" speed="27.78" allow="subway" oneway="1"/>

    <edge id=":1067899967_0" function="internal">
        <lane id=":1067899967_0_0" index="0" allow="pedestrian delivery bicycle" speed="3.65" length="4.67" shape="64.79,47.80 63.36,47.97 62.53,47.63 62.31,46.76 62.70,45.37"/>
    </edge>
    <edge id=":1067900017_0" function="internal">
        <lane id=":1067900017_0_0" index="0" allow="pedestrian delivery bicycle" speed="5.56" length="5.86" shape="146.50,133.84 145.24,132.50 144.02,131.54 142.84,130.96 141.70,130.75"/>
    </edge>
    <edge id=":1067900017_1" function="internal">
        <lane id=":1067900017_1_0" index="0" allow="pedestrian delivery bicycle" speed="5.56" length="10.18" shape="146.50,133.84 145.02,131.47 144.66,129.20 145.41,127.03 147.27,124.95"/>
    </edge>
    <edge id=":1067900017_2" function="internal">
        <lane id=":1067900017_2_0" index="0" allow="pedestrian delivery bicycle" speed="3.65" length="4.67" shape="146.50,133.84 146.34,132.40 146.69,131.58 147.56,131.37 148.95,131.77"/>
    </edge>
    <edge id=":1067900017_3" function="internal">
        <lane id=":1067900017_3_0" index="0" allow="pedestrian delivery bicycle" speed="5.04" length="5.01" shape="149.33,127.40 148.41,128.43 148.04,129.49 148.22,130.61 148.95,131.77"/>
    </edge>
    <edge id=":1067900017_4" function="internal">
        <lane id=":1067900017_4_0" index="0" allow="pedestrian delivery bicycle" speed="5.56" length="8.64" shape="149.33,127.40 147.37,129.06 145.88,130.11 144.20,130.63 141.70,130.75"/>
    </edge>
    <edge id=":1067900017_5" function="internal">
        <lane id=":1067900017_5_0" index="0" allow="pedestrian delivery bicycle" speed="3.65" length="4.67" shape="149.33,127.40 147.89,127.56 147.07,127.20 146.87,126.33 147.27,124.95"/>
    </edge>
    <edge id=":1067900017_6" function="internal">
        <lane id=":1067900017_6_0" index="0" allow="pedestrian delivery bicycle" speed="5.56" length="6.33" shape="141.76,127.55 143.58,127.44 144.78,127.00 145.85,126.19 147.27,124.95"/>
    </edge>
    <edge id=":1067900017_7" function="internal">
        <lane id=":1067900017_7_0" index="0" allow="pedestrian delivery bicycle" speed="5.56" length="8.58" shape="141.76,127.55 143.59,127.84 145.39,128.64 147.18,129.95 148.95,131.77"/>
    </edge>
    <edge id=":1067900017_8" function="internal">
        <lane id=":1067900017_8_0" index="0" allow="pedestrian delivery bicycle" speed="3.65" length="4.67" shape="141.76,127.55 142.94,128.37 143.33,129.18 142.92,129.97 141.70,130.75"/>
    </edge>
    <edge id=":1067900101_0" function="internal">
        <lane id=":1067900101_0_0" index="0" allow="delivery bicycle" speed="5.04" length="5.00" shape="117.34,27.38 116.32,26.47 115.25,26.11 114.14,26.29 112.97,27.02"/>
    </edge>
    <edge id=":1067900101_1" function="internal">
        <lane id=":1067900101_1_0" index="0" allow="pedestrian delivery bicycle" speed="3.65" length="4.67" shape="110.90,24.59 112.33,24.42 113.16,24.77 113.37,25.64 112.97,27.02"/>
    </edge>
    <edge id=":1067900186_0" function="internal">
        <lane id=":1067900186_0_0" index="0" allow="pedestrian delivery bicycle" speed="5.56" length="9.05" shape="188.33,10.44 190.47,13.14 191.72,15.35 192.09,17.06 191.57,18.28"/>
    </edge>
    <edge id=":1067900186_1" function="internal">
        <lane id=":1067900186_1_0" index="0" allow="pedestrian delivery bicycle" speed="3.66" length="4.72" shape="188.33,10.44 188.20,15.16"/>
    </edge>
    <edge id=":1067900186_2" function="internal">
        <lane id=":1067900186_2_0" index="0" allow="pedestrian delivery bicycle" speed="4.19" length="6.89" shape="188.33,10.44 190.07,11.67 190.63,12.86 190.00,14.03 188.20,15.16"/>
    </edge>
    <edge id=":1067900186_3" function="internal">
        <lane id=":1067900186_3_0" index="0" allow="pedestrian delivery bicycle" speed="3.42" length="1.64" shape="189.29,16.04 189.39,15.77 189.10,15.61 188.63,15.45 188.20,15.16"/>
    </edge>
    <edge id=":1067900186_4" function="internal">
        <lane id=":1067900186_4_0" index="0" allow="pedestrian delivery bicycle" speed="3.42" length="1.64" shape="189.29,16.04 189.39,15.77 189.10,15.61 188.63,15.45 188.20,15.16"/>
    </edge>
    <edge id=":1067900186_5" function="internal">
        <lane id=":1067900186_5_0" index="0" allow="pedestrian delivery bicycle" speed="3.65" length="4.67" shape="189.29,16.04 190.70,15.74 191.55,16.02 191.84,16.86 191.57,18.28"/>
    </edge>
    <edge id=":1067900186_6" function="internal">
        <lane id=":1067900186_6_0" index="0" allow="pedestrian delivery bicycle" speed="3.66" length="4.72" shape="188.33,10.44 188.20,15.16"/>
    </edge>
    <edge id=":1067900186_7" function="internal">
        <lane id=":1067900186_7_0" index="0" allow="pedestrian delivery bicycle" speed="5.56" length="9.05" shape="188.33,10.44 190.47,13.14 191.72,15.35 192.09,17.06 191.57,18.28"/>
    </edge>
    <edge id=":1067900186_8" function="internal">
        <lane id=":1067900186_8_0" index="0" allow="pedestrian delivery bicycle" speed="4.19" length="6.89" shape="188.33,10.44 190.07,11.67 190.63,12.86 190.00,14.03 188.20,15.16"/>
    </edge>
    <edge id=":1067900197_0" function="internal">
        <lane id=":1067900197_0_0" index="0" allow="pedestrian delivery bicycle" speed="3.65" length="4.67" shape="137.39,103.39 137.53,104.83 137.16,105.65 136.29,105.84 134.91,105.41"/>
    </edge>
    <edge id=":1067900201_0" function="internal">
        <lane id=":1067900201_0_0" index="0" allow="delivery bicycle" speed="5.05" length="4.99" shape="137.30,53.57 136.29,52.65 135.23,52.28 134.11,52.44 132.94,53.14"/>
    </edge>
    <edge id=":1067900201_1" function="internal">
        <lane id=":1067900201_1_0" index="0" disallow="pedestrian tram rail_urban rail rail_electric rail_fast ship container cable_car subway aircraft wheelchair scooter drone" speed="16.67" length="9.62" shape="139.77,51.53 137.78,49.52 136.15,48.42 134.51,47.33 132.50,45.34"/>
        <lane id=":1067900201_1_1" index="1" disallow="pedestrian tram rail_urban rail rail_electric rail_fast ship container cable_car subway aircraft wheelchair scooter drone" speed="16.67" length="9.62" shape="142.23,49.48 140.24,47.48 138.60,46.37 136.96,45.27 134.95,43.28"/>
        <lane id=":1067900201_1_2" index="2" disallow="pedestrian tram rail_urban rail rail_electric rail_fast ship container cable_car subway aircraft wheelchair scooter drone" speed="16.67" length="9.62" shape="144.69,47.44 142.70,45.43 141.06,44.32 139.41,43.21 137.39,41.21"/>
        <lane id=":1067900201_1_3" index="3" disallow="pedestrian tram rail_urban rail rail_electric rail_fast ship container cable_car subway aircraft wheelchair scooter drone" speed="16.67" length="9.62" shape="147.16,45.40 145.15,43.38 143.51,42.26 141.86,41.16 139.84,39.15"/>
    </edge>
    <edge id=":1067900201_5" function="internal">
        <lane id=":1067900201_5_0" index="0" allow="delivery bicycle" speed="5.51" length="6.27" shape="130.93,50.65 132.37,49.23 133.12,47.87 133.16,46.57 132.50,45.34"/>
        <lane id=":1067900201_5_1" index="1" allow="delivery bicycle" speed="6.51" length="9.17" shape="130.93,50.65 133.46,48.34 134.98,46.34 135.47,44.66 134.95,43.28"/>
    </edge>
    <edge id=":1067900201_7" function="internal">
        <lane id=":1067900201_7_0" index="0" allow="pedestrian delivery bicycle" speed="3.65" length="4.67" shape="130.93,50.65 132.36,50.52 133.18,50.89 133.37,51.76 132.94,53.14"/>
    </edge>
    <edge id=":1067900230_0" function="internal">
        <lane id=":1067900230_0_0" index="0" allow="delivery bicycle" speed="5.05" length="4.99" shape="167.28,41.57 166.38,42.60 166.03,43.67 166.22,44.79 166.96,45.94"/>
        <lane id=":1067900230_0_1" index="1" allow="delivery bicycle" speed="6.09" length="7.73" shape="167.28,41.57 165.33,43.52 164.22,45.25 163.95,46.75 164.52,48.02"/>
        <lane id=":1067900230_0_2" index="2" allow="delivery bicycle" speed="7.04" length="10.66" shape="167.28,41.57 164.27,44.44 162.41,46.82 161.68,48.70 162.09,50.10"/>
        <lane id=":1067900230_0_3" index="3" allow="delivery bicycle" speed="7.89" length="13.67" shape="167.28,41.57 163.21,45.36 160.59,48.39 159.41,50.66 159.66,52.18"/>
        <lane id=":1067900230_0_4" index="4" allow="delivery bicycle" speed="8.67" length="16.73" shape="167.28,41.57 162.16,46.27 158.78,49.96 157.13,52.62 157.23,54.26"/>
    </edge>
    <edge id=":1067900230_5" function="internal">
        <lane id=":1067900230_5_0" index="0" allow="pedestrian delivery bicycle" speed="3.65" length="4.67" shape="167.28,41.57 165.85,41.75 165.02,41.41 164.80,40.55 165.17,39.15"/>
    </edge>
    <edge id=":10743233418_0" function="internal">
        <lane id=":10743233418_0_0" index="0" allow="pedestrian delivery bicycle" speed="3.65" length="4.67" shape="794.55,476.39 795.78,475.63 796.67,475.59 797.23,476.29 797.47,477.71"/>
    </edge>
    <edge id=":10828048511_0" function="internal">
        <lane id=":10828048511_0_0" index="0" allow="pedestrian delivery bicycle" speed="3.65" length="4.67" shape="532.34,328.07 531.89,326.70 532.06,325.82 532.87,325.44 534.31,325.55"/>
    </edge>
    <edge id=":10847132654_0" function="internal">
        <lane id=":10847132654_0_0" index="0" allow="pedestrian delivery bicycle" speed="3.65" length="4.67" shape="512.83,37.11 512.35,35.75 512.52,34.87 513.32,34.47 514.76,34.56"/>
    </edge>
    <edge id=":10847132663_0" function="internal">
        <lane id=":10847132663_0_0" index="0" allow="pedestrian delivery bicycle" speed="5.56" length="5.52" shape="191.19,18.67 187.34,22.62"/>
    </edge>
    <edge id=":10847132663_1" function="internal">
        <lane id=":10847132663_1_0" index="0" allow="pedestrian delivery bicycle" speed="3.65" length="1.44" shape="191.19,18.67 189.78,18.97"/>
    </edge>
    <edge id=":10847132663_4" function="internal">
        <lane id=":10847132663_4_0" index="0" allow="pedestrian delivery bicycle" speed="3.65" length="3.23" shape="189.78,18.97 188.93,18.70 188.64,17.85 188.90,16.43"/>
    </edge>
    <edge id=":10847132663_2" function="internal">
        <lane id=":10847132663_2_0" index="0" allow="pedestrian delivery bicycle" speed="5.56" length="5.52" shape="185.05,20.39 188.90,16.43"/>
    </edge>
    <edge id=":10847132663_3" function="internal">
        <lane id=":10847132663_3_0" index="0" allow="pedestrian delivery bicycle" speed="3.65" length="1.44" shape="185.05,20.39 186.46,20.08"/>
    </edge>
    <edge id=":10847132663_5" function="internal">
        <lane id=":10847132663_5_0" index="0" allow="pedestrian delivery bicycle" speed="3.65" length="3.23" shape="186.46,20.08 187.31,20.36 187.60,21.20 187.34,22.62"/>
    </edge>
    <edge id=":10847132678_0" function="internal">
        <lane id=":10847132678_0_0" index="0" allow="pedestrian delivery bicycle" speed="3.65" length="4.67" shape="482.71,104.96 482.29,103.58 482.48,102.70 483.30,102.34 484.73,102.48"/>
    </edge>
    <edge id=":10847132679_0" function="internal">
        <lane id=":10847132679_0_0" index="0" allow="pedestrian delivery bicycle" speed="5.56" length="9.44" shape="499.28,111.05 492.52,117.65"/>
    </edge>
    <edge id=":10847132679_1" function="internal">
        <lane id=":10847132679_1_0" index="0" allow="pedestrian delivery bicycle" speed="5.56" length="10.23" shape="499.28,111.05 497.15,112.56 494.91,113.05 492.56,112.52 490.09,110.98"/>
    </edge>
    <edge id=":10847132679_2" function="internal">
        <lane id=":10847132679_2_0" index="0" allow="pedestrian delivery bicycle" speed="3.65" length="4.67" shape="499.28,111.05 497.86,111.31 497.01,111.02 496.74,110.17 497.04,108.76"/>
    </edge>
    <edge id=":10847132679_3" function="internal">
        <lane id=":10847132679_3_0" index="0" allow="pedestrian delivery bicycle" speed="5.44" length="5.48" shape="492.11,108.50 493.48,109.38 494.76,109.72 495.95,109.51 497.04,108.76"/>
    </edge>
    <edge id=":10847132679_4" function="internal">
        <lane id=":10847132679_4_0" index="0" allow="pedestrian delivery bicycle" speed="5.56" length="10.74" shape="492.11,108.50 494.14,110.70 494.88,112.96 494.34,115.27 492.52,117.65"/>
    </edge>
    <edge id=":10847132679_5" function="internal">
        <lane id=":10847132679_5_0" index="0" allow="pedestrian delivery bicycle" speed="3.65" length="4.67" shape="492.11,108.50 492.54,109.87 492.34,110.75 491.53,111.11 490.09,110.98"/>
    </edge>
    <edge id=":10847132679_6" function="internal">
        <lane id=":10847132679_6_0" index="0" allow="pedestrian delivery bicycle" speed="4.93" length="5.14" shape="490.29,115.36 491.16,114.22 491.41,113.11 491.06,112.03 490.09,110.98"/>
    </edge>
    <edge id=":10847132679_7" function="internal">
        <lane id=":10847132679_7_0" index="0" allow="pedestrian delivery bicycle" speed="5.56" length="9.44" shape="490.29,115.36 497.04,108.76"/>
    </edge>
    <edge id=":10847132679_8" function="internal">
        <lane id=":10847132679_8_0" index="0" allow="pedestrian delivery bicycle" speed="3.65" length="4.67" shape="490.29,115.36 491.70,115.09 492.55,115.38 492.82,116.24 492.52,117.65"/>
    </edge>
    <edge id=":10847132680_0" function="internal">
        <lane id=":10847132680_0_0" index="0" allow="pedestrian delivery bicycle" speed="3.65" length="4.67" shape="456.97,88.48 456.58,87.10 456.79,86.23 457.62,85.88 459.05,86.05"/>
    </edge>
    <edge id=":1095018201_0" function="internal">
        <lane id=":1095018201_0_0" index="0" allow="pedestrian delivery bicycle" speed="5.56" length="4.92" shape="96.08,63.50 92.95,59.71"/>
    </edge>
    <edge id=":1095018201_1" function="internal">
        <lane id=":1095018201_1_0" index="0" allow="pedestrian delivery bicycle" speed="3.65" length="4.67" shape="96.08,63.50 95.90,62.07 96.24,61.24 97.10,61.02 98.49,61.40"/>
    </edge>
    <edge id=":1095018201_2" function="internal">
        <lane id=":1095018201_2_0" index="0" allow="pedestrian delivery bicycle" speed="5.56" length="4.75" shape="95.47,57.74 98.49,61.40"/>
    </edge>
    <edge id=":1095018201_3" function="internal">
        <lane id=":1095018201_3_0" index="0" allow="pedestrian delivery bicycle" speed="3.65" length="4.67" shape="95.47,57.74 95.58,59.18 95.19,59.99 94.32,60.16 92.95,59.71"/>
    </edge>
    <edge id=":1095018204_0" function="internal">
        <lane id=":1095018204_0_0" index="0" allow="pedestrian delivery bicycle" speed="5.02" length="5.03" shape="80.17,38.68 79.15,37.75 78.08,37.38 76.96,37.57 75.80,38.31"/>
    </edge>
    <edge id=":1095018204_1" function="internal">
        <lane id=":1095018204_1_0" index="0" allow="pedestrian delivery bicycle" speed="5.56" length="9.43" shape="80.17,38.68 74.09,31.47"/>
    </edge>
    <edge id=":1095018204_2" function="internal">
        <lane id=":1095018204_2_0" index="0" allow="pedestrian delivery bicycle" speed="3.65" length="4.67" shape="80.17,38.68 80.02,37.25 80.39,36.43 81.26,36.23 82.64,36.65"/>
    </edge>
    <edge id=":1095018204_3" function="internal">
        <lane id=":1095018204_3_0" index="0" allow="pedestrian delivery bicycle" speed="5.56" length="9.50" shape="76.52,29.38 82.64,36.65"/>
    </edge>
    <edge id=":1095018204_4" function="internal">
        <lane id=":1095018204_4_0" index="0" allow="pedestrian delivery bicycle" speed="5.56" length="10.21" shape="76.52,29.38 78.01,31.73 78.39,34.00 77.65,36.19 75.80,38.31"/>
    </edge>
    <edge id=":1095018204_5" function="internal">
        <lane id=":1095018204_5_0" index="0" allow="pedestrian delivery bicycle" speed="3.65" length="4.67" shape="76.52,29.38 76.70,30.81 76.35,31.64 75.48,31.85 74.09,31.47"/>
    </edge>
    <edge id=":1095018204_6" function="internal">
        <lane id=":1095018204_6_0" index="0" allow="pedestrian delivery bicycle" speed="5.07" length="5.06" shape="73.71,35.89 74.64,34.83 75.01,33.75 74.83,32.62 74.09,31.47"/>
    </edge>
    <edge id=":1095018204_7" function="internal">
        <lane id=":1095018204_7_0" index="0" allow="pedestrian delivery bicycle" speed="5.56" length="10.27" shape="73.71,35.89 76.09,34.37 78.37,33.99 80.55,34.75 82.64,36.65"/>
    </edge>
    <edge id=":1095018204_8" function="internal">
        <lane id=":1095018204_8_0" index="0" allow="pedestrian delivery bicycle" speed="3.65" length="4.67" shape="73.71,35.89 75.14,35.71 75.97,36.05 76.19,36.92 75.80,38.31"/>
    </edge>
    <edge id=":11071976125_0" function="internal">
        <lane id=":11071976125_0_0" index="0" allow="pedestrian delivery bicycle" speed="3.65" length="4.67" shape="352.44,416.58 352.11,415.18 352.37,414.32 353.21,414.01 354.63,414.25"/>
    </edge>
    <edge id=":11071976127_0" function="internal">
        <lane id=":11071976127_0_0" index="0" allow="pedestrian delivery bicycle" speed="3.65" length="4.67" shape="357.73,410.99 357.40,409.58 357.66,408.72 358.50,408.42 359.92,408.66"/>
    </edge>
    <edge id=":11071976130_0" function="internal">
        <lane id=":11071976130_0_0" index="0" allow="pedestrian delivery bicycle" speed="11.11" length="3.70" shape="378.71,406.72 376.65,408.92"/>
        <lane id=":11071976130_0_1" index="1" allow="pedestrian delivery bicycle" speed="11.11" length="3.70" shape="378.71,406.72 374.33,406.72"/>
    </edge>
    <edge id=":11071976130_2" function="internal">
        <lane id=":11071976130_2_0" index="0" allow="pedestrian delivery bicycle" speed="3.65" length="4.67" shape="378.71,406.72 377.31,407.06 376.45,406.81 376.13,405.98 376.35,404.55"/>
    </edge>
    <edge id=":1113593030_0" function="internal">
        <lane id=":1113593030_0_0" index="0" allow="pedestrian delivery bicycle" speed="3.65" length="4.67" shape="398.45,426.49 397.99,425.13 398.17,424.25 398.97,423.86 400.41,423.97"/>
    </edge>
    <edge id=":1113593955_0" function="internal">
        <lane id=":1113593955_0_0" index="0" disallow="pedestrian tram rail_urban rail rail_electric rail_fast ship container cable_car subway aircraft wheelchair scooter drone" speed="16.67" length="8.18" shape="577.40,446.03 575.21,445.00 573.55,444.63 571.90,444.25 569.73,443.19"/>
        <lane id=":1113593955_0_1" index="1" disallow="pedestrian tram rail_urban rail rail_electric rail_fast ship container cable_car subway aircraft wheelchair scooter drone" speed="16.67" length="8.18" shape="579.05,443.28 576.88,442.27 575.22,441.91 573.58,441.53 571.43,440.48"/>
        <lane id=":1113593955_0_2" index="2" disallow="pedestrian tram rail_urban rail rail_electric rail_fast ship container cable_car subway aircraft wheelchair scooter drone" speed="16.67" length="8.18" shape="580.70,440.54 578.54,439.53 576.90,439.18 575.26,438.81 573.12,437.77"/>
    </edge>
    <edge id=":1113668085_0" function="internal">
        <lane id=":1113668085_0_0" index="0" allow="pedestrian delivery bicycle" speed="16.67" length="8.50" shape="386.61,398.11 380.86,404.37"/>
    </edge>
    <edge id=":1113668085_1" function="internal">
        <lane id=":1113668085_1_0" index="0" allow="pedestrian delivery bicycle" speed="3.65" length="1.44" shape="386.61,398.11 385.21,398.45"/>
    </edge>
    <edge id=":1113668085_4" function="internal">
        <lane id=":1113668085_4_0" index="0" allow="pedestrian delivery bicycle" speed="3.65" length="3.23" shape="385.21,398.45 384.35,398.20 384.03,397.37 384.25,395.94"/>
    </edge>
    <edge id=":1113668085_2" function="internal">
        <lane id=":1113668085_2_0" index="0" allow="pedestrian delivery bicycle" speed="16.67" length="8.50" shape="378.50,402.20 384.25,395.94"/>
    </edge>
    <edge id=":1113668085_3" function="internal">
        <lane id=":1113668085_3_0" index="0" allow="pedestrian delivery bicycle" speed="3.65" length="1.44" shape="378.50,402.20 379.90,401.86"/>
    </edge>
    <edge id=":1113668085_5" function="internal">
        <lane id=":1113668085_5_0" index="0" allow="pedestrian delivery bicycle" speed="3.65" length="3.23" shape="379.90,401.86 380.76,402.11 381.08,402.94 380.86,404.37"/>
    </edge>
    <edge id=":1117629031_0" function="internal">
        <lane id=":1117629031_0_0" index="0" allow="pedestrian delivery bicycle" speed="3.65" length="4.67" shape="242.69,584.86 242.34,583.46 242.59,582.60 243.43,582.28 244.85,582.50"/>
    </edge>
    <edge id=":1117629375_0" function="internal">
        <lane id=":1117629375_0_0" index="0" allow="delivery bicycle" speed="5.03" length="5.01" shape="199.37,600.61 198.24,599.82 197.13,599.59 196.05,599.91 194.98,600.79"/>
    </edge>
    <edge id=":1117629375_1" function="internal">
        <lane id=":1117629375_1_0" index="0" allow="delivery bicycle" speed="6.87" length="10.19" shape="199.37,600.61 197.61,598.43 196.96,596.22 197.44,593.97 199.04,591.68"/>
    </edge>
    <edge id=":1117629375_2" function="internal">
        <lane id=":1117629375_2_0" index="0" allow="pedestrian delivery bicycle" speed="3.65" length="4.67" shape="199.37,600.61 199.03,599.21 199.28,598.35 200.12,598.03 201.55,598.27"/>
    </edge>
    <edge id=":1117629375_3" function="internal">
        <lane id=":1117629375_3_0" index="0" allow="delivery bicycle" speed="5.05" length="5.02" shape="201.37,593.87 200.59,594.99 200.36,596.10 200.68,597.19 201.55,598.27"/>
    </edge>
    <edge id=":1117629375_4" function="internal">
        <lane id=":1117629375_4_0" index="0" disallow="pedestrian tram rail_urban rail rail_electric rail_fast ship container cable_car subway aircraft wheelchair scooter drone" speed="16.67" length="9.42" shape="201.37,593.87 194.98,600.79"/>
    </edge>
    <edge id=":1117629375_5" function="internal">
        <lane id=":1117629375_5_0" index="0" disallow="pedestrian tram rail_urban rail rail_electric rail_fast ship container cable_car subway aircraft wheelchair scooter drone" speed="16.67" length="9.46" shape="192.62,598.63 199.04,591.68"/>
    </edge>
    <edge id=":1117629375_6" function="internal">
        <lane id=":1117629375_6_0" index="0" allow="delivery bicycle" speed="6.85" length="3.31" shape="192.62,598.63 194.78,596.85 195.27,596.71"/>
    </edge>
    <edge id=":1117629375_7" function="internal">
        <lane id=":1117629375_7_0" index="0" allow="delivery bicycle" speed="6.85" length="6.90" shape="195.27,596.71 196.99,596.19 199.24,596.67 201.55,598.27"/>
    </edge>
    <edge id=":1117630643_0" function="internal">
        <lane id=":1117630643_0_0" index="0" allow="pedestrian delivery bicycle" speed="3.65" length="4.67" shape="259.79,663.80 259.46,662.40 259.72,661.54 260.55,661.23 261.98,661.47"/>
    </edge>
    <edge id=":1117630643_1" function="internal">
        <lane id=":1117630643_1_0" index="0" allow="delivery bicycle" speed="5.05" length="4.98" shape="261.81,657.09 261.04,658.22 260.81,659.32 261.12,660.41 261.98,661.47"/>
    </edge>
    <edge id=":1117632001_0" function="internal">
        <lane id=":1117632001_0_0" index="0" allow="delivery bicycle" speed="5.01" length="5.03" shape="314.22,604.48 313.10,603.67 311.99,603.42 310.91,603.74 309.84,604.61"/>
    </edge>
    <edge id=":1117632001_1" function="internal">
        <lane id=":1117632001_1_0" index="0" allow="pedestrian delivery bicycle" speed="3.65" length="4.67" shape="314.22,604.48 313.91,603.07 314.18,602.22 315.02,601.92 316.44,602.18"/>
    </edge>
    <edge id=":1117632001_2" function="internal">
        <lane id=":1117632001_2_0" index="0" allow="delivery bicycle" speed="5.19" length="5.15" shape="316.06,597.63 315.34,598.76 315.17,599.90 315.53,601.04 316.44,602.18"/>
    </edge>
    <edge id=":1117632001_3" function="internal">
        <lane id=":1117632001_3_0" index="0" disallow="pedestrian tram rail_urban rail rail_electric rail_fast ship container cable_car subway aircraft wheelchair scooter drone" speed="13.89" length="9.36" shape="316.06,597.63 309.84,604.61"/>
    </edge>
    <edge id=":1118302939_0" function="internal">
        <lane id=":1118302939_0_0" index="0" disallow="pedestrian tram rail_urban rail rail_electric rail_fast ship container cable_car subway aircraft wheelchair scooter drone" speed="13.89" length="9.40" shape="78.96,578.06 85.97,584.33"/>
    </edge>
    <edge id=":1118302939_1" function="internal">
        <lane id=":1118302939_1_0" index="0" allow="delivery bicycle" speed="6.07" length="7.79" shape="78.96,578.06 80.89,580.05 81.96,581.80 82.18,583.32 81.54,584.60"/>
    </edge>
    <edge id=":1118302939_2" function="internal">
        <lane id=":1118302939_2_0" index="0" allow="delivery bicycle" speed="6.11" length="7.77" shape="79.18,582.44 80.39,581.70 81.93,581.76 83.79,582.64 85.97,584.33"/>
    </edge>
    <edge id=":1118302939_3" function="internal">
        <lane id=":1118302939_3_0" index="0" allow="pedestrian delivery bicycle" speed="3.65" length="4.67" shape="79.18,582.44 80.58,582.09 81.44,582.34 81.76,583.17 81.54,584.60"/>
    </edge>
    <edge id=":1118303061_0" function="internal">
        <lane id=":1118303061_0_0" index="0" allow="pedestrian delivery bicycle" speed="5.56" length="5.07" shape="204.38,605.27 200.67,601.82"/>
    </edge>
    <edge id=":1118303061_1" function="internal">
        <lane id=":1118303061_1_0" index="0" allow="pedestrian delivery bicycle" speed="3.65" length="1.44" shape="204.38,605.27 204.05,603.86"/>
    </edge>
    <edge id=":1118303061_4" function="internal">
        <lane id=":1118303061_4_0" index="0" allow="pedestrian delivery bicycle" speed="3.65" length="3.23" shape="204.05,603.86 204.30,603.01 205.13,602.69 206.56,602.92"/>
    </edge>
    <edge id=":1118303061_2" function="internal">
        <lane id=":1118303061_2_0" index="0" allow="pedestrian delivery bicycle" speed="5.56" length="5.07" shape="202.84,599.47 206.56,602.92"/>
    </edge>
    <edge id=":1118303061_3" function="internal">
        <lane id=":1118303061_3_0" index="0" allow="pedestrian delivery bicycle" speed="3.65" length="1.44" shape="202.84,599.47 203.18,600.88"/>
    </edge>
    <edge id=":1118303061_5" function="internal">
        <lane id=":1118303061_5_0" index="0" allow="pedestrian delivery bicycle" speed="3.65" length="3.23" shape="203.18,600.88 202.93,601.73 202.09,602.05 200.67,601.82"/>
    </edge>
    <edge id=":1118303062_0" function="internal">
        <lane id=":1118303062_0_0" index="0" allow="pedestrian delivery bicycle" speed="5.56" length="5.06" shape="281.80,399.76 278.07,396.34"/>
    </edge>
    <edge id=":1118303062_1" function="internal">
        <lane id=":1118303062_1_0" index="0" allow="pedestrian delivery bicycle" speed="3.65" length="1.44" shape="281.80,399.76 281.45,398.36"/>
    </edge>