<?xml version="1.0" encoding="UTF-8"?>

<!-- generated on 2025-05-01 19:50:22.491276 by osmWebWizard.py UNKNOWN
<configuration>
    <net-file value="/home/chartist/sumo/tools/2025-05-01-19-50-09/osm.net.xml.gz"/>
    <output-trip-file value="/home/chartist/sumo/tools/2025-05-01-19-50-09/osm.passenger.trips.xml"/>
    <route-file value="/home/chartist/sumo/tools/2025-05-01-19-50-09/osm.passenger.rou.xml"/>
    <prefix value="veh"/>
    <trip-attributes value="departLane=&quot;best&quot;"/>
    <fringe-start-attributes value="departSpeed=&quot;max&quot;"/>
    <vehicle-class value="passenger"/>
    <lanes value="True"/>
    <fringe-factor value="5"/>
    <allow-fringe.min-length value="1000.0"/>
    <via-edge-types value="highway.motorway,highway.motorway_link,highway.trunk_link,highway.primary_link,highway.secondary_link,highway.tertiary_link"/>
    <min-distance value="300.0"/>
    <min-distance.fringe value="10.0"/>
    <remove-loops value="True"/>
    <validate value="True"/>
    <insertion-density value="12.0"/>
</configuration>
-->

<!-- generated on 2025-05-01 19:50:22 by Eclipse SUMO duarouter Version 1.22.0
<duarouterConfiguration xmlns:xsi="http://www.w3.org/2001/XMLSchema-instance" xsi:noNamespaceSchemaLocation="http://sumo.dlr.de/xsd/duarouterConfiguration.xsd">

    <input>
        <net-file value="/home/chartist/sumo/tools/2025-05-01-19-50-09/osm.net.xml.gz"/>
        <route-files value="/home/chartist/sumo/tools/2025-05-01-19-50-09/osm.passenger.trips.xml"/>
    </input>

    <output>
        <output-file value="/home/chartist/sumo/tools/2025-05-01-19-50-09/osm.passenger.trips.xml.tmp"/>
        <alternatives-output value="NUL"/>
        <write-trips value="true"/>
    </output>

    <processing>
        <remove-loops value="true"/>
    </processing>

    <time>
        <begin value="0.0"/>
        <end value="3600.0"/>
    </time>

    <report>
        <no-warnings value="true"/>
        <ignore-errors value="true"/>
        <no-step-log value="true"/>
    </report>

</duarouterConfiguration>
-->

<routes xmlns:xsi="http://www.w3.org/2001/XMLSchema-instance" xsi:noNamespaceSchemaLocation="http://sumo.dlr.de/xsd/routes_file.xsd">
    <vType id="veh_passenger" vClass="passenger"/>
    <trip id="veh0" type="veh_passenger" depart="0.00" departLane="best" from="28381271#2" to="-1158095208#1"/>
    <trip id="veh1" type="veh_passenger" depart="6.35" departLane="best" from="1157849036#2" to="1052675054#1"/>
    <trip id="veh2" type="veh_passenger" depart="12.70" departLane="best" from="435282151#1" to="28218888#1"/>
    <trip id="veh3" type="veh_passenger" depart="19.05" departLane="best" from="681217518#0" to="-27685783#0"/>
    <trip id="veh4" type="veh_passenger" depart="25.40" departLane="best" from="1241233194" to="-1158097321"/>
    <trip id="veh5" type="veh_passenger" depart="31.75" departLane="best" from="1092717624#2" to="1272919044#1"/>
    <trip id="veh6" type="veh_passenger" depart="38.10" departLane="best" from="-1232299199#0" to="-768587363"/>
    <trip id="veh7" type="veh_passenger" depart="44.46" departLane="best" from="301243902#1" to="154928474"/>
    <trip id="veh8" type="veh_passenger" depart="50.81" departLane="best" from="1092993020#1" to="23174032"/>
    <trip id="veh9" type="veh_passenger" depart="57.16" departLane="best" departSpeed="max" from="584723260#0" to="-1092717625#0"/>
    <trip id="veh11" type="veh_passenger" depart="69.86" departLane="best" from="1158098733#1" to="-610008340"/>
    <trip id="veh12" type="veh_passenger" depart="76.21" departLane="best" from="83861790" to="-1157849036#1"/>
    <trip id="veh13" type="veh_passenger" depart="82.56" departLane="best" from="41747645#0" to="28218888#2"/>
    <trip id="veh14" type="veh_passenger" depart="88.91" departLane="best" from="624227619" to="23254522#2"/>
    <trip id="veh15" type="veh_passenger" depart="95.26" departLane="best" departSpeed="max" from="584723260#0" to="-41747645#0"/>
    <trip id="veh16" type="veh_passenger" depart="101.61" departLane="best" from="23254558#2" to="88088688#0"/>
    <trip id="veh17" type="veh_passenger" depart="107.96" departLane="best" from="1232299203" to="154928481#0"/>
    <trip id="veh18" type="veh_passenger" depart="114.31" departLane="best" from="624227615#2" to="23254652"/>
    <trip id="veh19" type="veh_passenger" depart="120.66" departLane="best" from="624227649#1" to="23174018#5"/>
    <trip id="veh20" type="veh_passenger" depart="127.01" departLane="best" from="41747645#1" to="-1232299201#3"/>
    <trip id="veh21" type="veh_passenger" depart="133.37" departLane="best" from="-28218888#3" to="1052675055#1"/>
    <trip id="veh22" type="veh_passenger" depart="139.72" departLane="best" from="-46490661#5" to="1092993020#1"/>
    <trip id="veh23" type="veh_passenger" depart="146.07" departLane="best" from="28381271#1" to="1158095207#0"/>
    <trip id="veh24" type="veh_passenger" depart="152.42" departLane="best" from="1232299201#0" to="1052675050"/>
    <trip id="veh25" type="veh_passenger" depart="158.77" departLane="best" from="1157849034#0" to="-768587364#0"/>
    <trip id="veh27" type="veh_passenger" depart="171.47" departLane="best" from="1052675055#0" to="-38963644"/>
    <trip id="veh28" type="veh_passenger" depart="177.82" departLane="best" from="1052675054#0" to="1158098640#1"/>
    <trip id="veh29" type="veh_passenger" depart="184.17" departLane="best" from="88088689#3" to="-249215885#0"/>
    <trip id="veh30" type="veh_passenger" depart="190.52" departLane="best" departSpeed="max" from="23254668" to="28381271#0"/>
    <trip id="veh31" type="veh_passenger" depart="196.87" departLane="best" from="624227618#2" to="435282157#2"/>
    <trip id="veh32" type="veh_passenger" depart="203.22" departLane="best" from="1158095485#1" to="1084501320#1"/>
    <trip id="veh33" type="veh_passenger" depart="209.57" departLane="best" from="-1084501321" to="808404758"/>
    <trip id="veh34" type="veh_passenger" depart="215.93" departLane="best" from="624227658" to="1157847491#1"/>
    <trip id="veh35" type="veh_passenger" depart="222.28" departLane="best" departSpeed="max" from="31308290" to="1158098733#1"/>
    <trip id="veh36" type="veh_passenger" depart="228.63" departLane="best" departSpeed="max" from="768587331#0" to="123306750"/>
    <trip id="veh37" type="veh_passenger" depart="234.98" departLane="best" from="1157848824#1" to="1052675059"/>
    <trip id="veh38" type="veh_passenger" depart="241.33" departLane="best" from="23254763#3" to="1084501319#0"/>
    <trip id="veh39" type="veh_passenger" depart="247.68" departLane="best" from="92867352" to="1323156788#0"/>
    <trip id="veh40" type="veh_passenger" depart="254.03" departLane="best" from="38963644" to="-1232299201#4"/>
    <trip id="veh41" type="veh_passenger" depart="260.38" departLane="best" from="584723260#1" to="24405341#1"/>
    <trip id="veh42" type="veh_passenger" depart="266.73" departLane="best" from="527944560#0" to="120840398"/>
    <trip id="veh43" type="veh_passenger" depart="273.08" departLane="best" from="-24405341#7" to="1158098640#2"/>
    <trip id="veh44" type="veh_passenger" depart="279.43" departLane="best" from="92867352" to="1350965238#0"/>
    <trip id="veh45" type="veh_passenger" depart="285.78" departLane="best" from="83861792" to="624227619"/>
    <trip id="veh46" type="veh_passenger" depart="292.13" departLane="best" from="-1158095207#0" to="321370424"/>
    <trip id="veh47" type="veh_passenger" depart="298.49" departLane="best" from="321370424" to="154928468#0"/>
    <trip id="veh48" type="veh_passenger" depart="304.84" departLane="best" from="1157848824#1" to="-249215885#0"/>
    <trip id="veh49" type="veh_passenger" depart="311.19" departLane="best" from="610008329" to="1232299200#3"/>
    <trip id="veh50" type="veh_passenger" depart="317.54" departLane="best" from="1350965235#2" to="83861789#1"/>
    <trip id="veh51" type="veh_passenger" depart="323.89" departLane="best" from="624227658" to="1084501319#0"/>
    <trip id="veh52" type="veh_passenger" depart="330.24" departLane="best" from="154928481#3" to="-73273590"/>
    <trip id="veh53" type="veh_passenger" depart="336.59" departLane="best" departSpeed="max" from="768587331#0" to="624227647"/>
    <trip id="veh54" type="veh_passenger" depart="342.94" departLane="best" departSpeed="max" from="1158087239#0" to="24548318"/>
    <trip id="veh55" type="veh_passenger" depart="349.29" departLane="best" from="27808806#3" to="-610008329"/>
    <trip id="veh56" type="veh_passenger" depart="355.64" departLane="best" from="-46490661#6" to="154928468#1"/>
    <trip id="veh57" type="veh_passenger" depart="361.99" departLane="best" from="527768888#0" to="1350965238#0"/>
    <trip id="veh58" type="veh_passenger" depart="368.34" departLane="best" from="-1158097321" to="-768587358#1"/>
    <trip id="veh59" type="veh_passenger" depart="374.69" departLane="best" from="624227659" to="610008342"/>
    <trip id="veh60" type="veh_passenger" depart="381.04" departLane="best" from="1158090418#2" to="-1241233196"/>
    <trip id="veh61" type="veh_passenger" depart="387.40" departLane="best" from="624227659" to="83861788#1"/>
    <trip id="veh62" type="veh_passenger" depart="393.75" departLane="best" from="-301243903#1" to="1241233193#2"/>
    <trip id="veh63" type="veh_passenger" depart="400.10" departLane="best" from="249215885#1" to="435282152#1"/>
    <trip id="veh64" type="veh_passenger" depart="406.45" departLane="best" from="47647257" to="46490661#3"/>
    <trip id="veh65" type="veh_passenger" depart="412.80" departLane="best" departSpeed="max" from="1350970529" to="154928480"/>
    <trip id="veh66" type="veh_passenger" depart="419.15" departLane="best" from="1157848824#1" to="624227648"/>
    <trip id="veh67" type="veh_passenger" depart="425.50" departLane="best" from="1241233195#0" to="1052675052"/>
    <trip id="veh68" type="veh_passenger" depart="431.85" departLane="best" from="23254558#5" to="-41747645#0"/>
    <trip id="veh69" type="veh_passenger" depart="438.20" departLane="best" from="108126135" to="1157847212#2"/>
    <trip id="veh71" type="veh_passenger" depart="450.90" departLane="best" from="681217524" to="1052675054#1"/>
    <trip id="veh72" type="veh_passenger" depart="457.25" departLane="best" from="1158098732" to="23174032"/>
    <trip id="veh73" type="veh_passenger" depart="463.60" departLane="best" from="1157846524#0" to="1052675054#0"/>
    <trip id="veh74" type="veh_passenger" depart="469.96" departLane="best" from="249215885#2" to="24405341#5"/>
    <trip id="veh75" type="veh_passenger" depart="476.31" departLane="best" from="1157846524#0" to="681217521#0"/>
    <trip id="veh76" type="veh_passenger" depart="482.66" departLane="best" from="624227649#0" to="-24405341#1"/>
    <trip id="veh78" type="veh_passenger" depart="495.36" departLane="best" from="1092717624#1" to="46490661#7"/>
    <trip id="veh79" type="veh_passenger" depart="501.71" departLane="best" departSpeed="max" from="1350970529" to="46490661#7"/>
    <trip id="veh80" type="veh_passenger" depart="508.06" departLane="best" departSpeed="max" from="584723260#0" to="-768587357"/>
    <trip id="veh81" type="veh_passenger" depart="514.41" departLane="best" from="-46490661#1" to="1232299199#1"/>
    <trip id="veh82" type="veh_passenger" depart="520.76" departLane="best" from="1241233195#0" to="1233933462#1"/>
    <trip id="veh83" type="veh_passenger" depart="527.11" departLane="best" from="1160736369" to="28218245#0"/>
    <trip id="veh84" type="veh_passenger" depart="533.46" departLane="best" from="88088689#1" to="28218888#3"/>
    <trip id="veh85" type="veh_passenger" depart="539.81" departLane="best" from="624227649#1" to="1052675059"/>
    <trip id="veh86" type="veh_passenger" depart="546.16" departLane="best" from="1052675059" to="1232299205#0"/>
    <trip id="veh87" type="veh_passenger" depart="552.51" departLane="best" from="1241233194" to="1092717624#2"/>
    <trip id="veh88" type="veh_passenger" depart="558.87" departLane="best" from="1157847212#2" to="-768587335#0"/>
    <trip id="veh89" type="veh_passenger" depart="565.22" departLane="best" from="1333209940#1" to="624227619"/>
    <trip id="veh90" type="veh_passenger" depart="571.57" departLane="best" departSpeed="max" from="23254668" to="-1240474934"/>
    <trip id="veh91" type="veh_passenger" depart="577.92" departLane="best" from="930774439" to="624227612#1"/>
    <trip id="veh92" type="veh_passenger" depart="584.27" departLane="best" from="83861791#3" to="-768587357"/>
    <trip id="veh93" type="veh_passenger" depart="590.62" departLane="best" from="154928469#0" to="1052675053#0"/>
    <trip id="veh94" type="veh_passenger" depart="596.97" departLane="best" from="1233933462#2" to="-1323156777"/>
    <trip id="veh95" type="veh_passenger" depart="603.32" departLane="best" from="1157848824#1" to="46490661#6"/>
    <trip id="veh96" type="veh_passenger" depart="609.67" departLane="best" from="83861790" to="88088706"/>
    <trip id="veh97" type="veh_passenger" depart="616.02" departLane="best" departSpeed="max" from="23254668" to="321370424"/>
    <trip id="veh98" type="veh_passenger" depart="622.37" departLane="best" from="1052675052" to="1157846690#1"/>
    <trip id="veh99" type="veh_passenger" depart="628.72" departLane="best" from="83861791#3" to="23174024#0"/>
    <trip id="veh100" type="veh_passenger" depart="635.07" departLane="best" from="23254585#1" to="435282150#0"/>
    <trip id="veh101" type="veh_passenger" depart="641.43" departLane="best" from="83861791#3" to="23174032"/>
    <trip id="veh102" type="veh_passenger" depart="647.78" departLane="best" from="23173895#1" to="624227618#0"/>
    <trip id="veh103" type="veh_passenger" depart="654.13" departLane="best" from="1052675053#0" to="83861791#1"/>
    <trip id="veh104" type="veh_passenger" depart="660.48" departLane="best" from="-28218888#3" to="-768587331#2"/>
    <trip id="veh105" type="veh_passenger" depart="666.83" departLane="best" departSpeed="max" from="27808806#0" to="28218245#2"/>
    <trip id="veh106" type="veh_passenger" depart="673.18" departLane="best" from="1157846690#1" to="-41747641"/>
    <trip id="veh107" type="veh_passenger" depart="679.53" departLane="best" from="681217517" to="1052675059"/>
    <trip id="veh108" type="veh_passenger" depart="685.88" departLane="best" departSpeed="max" from="27808806#0" to="23254652"/>
    <trip id="veh110" type="veh_passenger" depart="698.58" departLane="best" from="23174024#0" to="-768587363"/>
    <trip id="veh111" type="veh_passenger" depart="704.93" departLane="best" from="1084501319#0" to="321370423"/>
    <trip id="veh112" type="veh_passenger" depart="711.28" departLane="best" from="1157846800" to="1158098733#1"/>
    <trip id="veh113" type="veh_passenger" depart="717.63" departLane="best" from="32042296#0" to="1157846800"/>
    <trip id="veh114" type="veh_passenger" depart="723.99" departLane="best" from="1158095485#2" to="435282151#0"/>
    <trip id="veh115" type="veh_passenger" depart="730.34" departLane="best" from="249215885#4" to="123306749#1"/>
    <trip id="veh116" type="veh_passenger" depart="736.69" departLane="best" from="930774439" to="92867352"/>
    <trip id="veh117" type="veh_passenger" depart="743.04" departLane="best" from="249215885#4" to="1052675053#0"/>
    <trip id="veh118" type="veh_passenger" depart="749.39" departLane="best" from="1157848824#1" to="-768587363"/>
    <trip id="veh119" type="veh_passenger" depart="755.74" departLane="best" from="681217513#0" to="624227650"/>
    <trip id="veh120" type="veh_passenger" depart="762.09" departLane="best" from="-1232299201#0" to="-624227655"/>
    <trip id="veh121" type="veh_passenger" depart="768.44" departLane="best" from="624227616#1" to="284569080"/>
    <trip id="veh122" type="veh_passenger" depart="774.79" departLane="best" from="27808806#4" to="88088689#2"/>
    <trip id="veh123" type="veh_passenger" depart="781.14" departLane="best" from="610008341" to="1157846800"/>
    <trip id="veh124" type="veh_passenger" depart="787.49" departLane="best" departSpeed="max" from="31308290" to="-768587364#1"/>
    <trip id="veh125" type="veh_passenger" depart="793.84" departLane="best" from="768587357" to="-41747641"/>
    <trip id="veh126" type="veh_passenger" depart="800.19" departLane="best" from="-540239607" to="154928481#1"/>
    <trip id="veh127" type="veh_passenger" depart="806.54" departLane="best" from="1157849034#1" to="23254522#2"/>
    <trip id="veh128" type="veh_passenger" depart="812.90" departLane="best" from="429392335" to="1052675049"/>
    <trip id="veh129" type="veh_passenger" depart="819.25" departLane="best" from="28381271#0" to="1084501319#0"/>
    <trip id="veh130" type="veh_passenger" depart="825.60" departLane="best" from="154928473" to="681217521#0"/>
    <trip id="veh131" type="veh_passenger" depart="831.95" departLane="best" from="624227619" to="-27685783#1"/>
    <trip id="veh132" type="veh_passenger" depart="838.30" departLane="best" from="1241233195#0" to="1092717624#1"/>
    <trip id="veh133" type="veh_passenger" depart="844.65" departLane="best" from="28381271#1" to="1084501318#1"/>
    <trip id="veh134" type="veh_passenger" depart="851.00" departLane="best" from="435282152#2" to="154928481#0"/>
    <trip id="veh135" type="veh_passenger" depart="857.35" departLane="best" from="1241233211" to="-1158087239#1"/>
    <trip id="veh136" type="veh_passenger" depart="863.70" departLane="best" from="27685783#2" to="624227659"/>
    <trip id="veh137" type="veh_passenger" depart="870.05" departLane="best" from="681217523" to="154928474"/>
    <trip id="veh138" type="veh_passenger" depart="876.40" departLane="best" from="624227617#0" to="23174024#4"/>
    <trip id="veh139" type="veh_passenger" depart="882.75" departLane="best" from="1052675049" to="46490661#2"/>
    <trip id="veh140" type="veh_passenger" depart="889.10" departLane="best" from="527944560#1" to="624227619"/>
    <trip id="veh141" type="veh_passenger" depart="895.46" departLane="best" from="1157847212#2" to="-301243903#0"/>
    <trip id="veh142" type="veh_passenger" depart="901.81" departLane="best" from="527768888#1" to="624227659"/>
    <trip id="veh143" type="veh_passenger" depart="908.16" departLane="best" from="1240474936" to="23254763#2"/>
    <trip id="veh144" type="veh_passenger" depart="914.51" departLane="best" from="1052675052" to="-768587358#1"/>
    <trip id="veh145" type="veh_passenger" depart="920.86" departLane="best" from="624227650" to="88088688#1"/>
    <trip id="veh146" type="veh_passenger" depart="927.21" departLane="best" from="584723260#1" to="-624227658"/>
    <trip id="veh147" type="veh_passenger" depart="933.56" departLane="best" from="-1232299198#0" to="429392344"/>
    <trip id="veh148" type="veh_passenger" depart="939.91" departLane="best" from="1158098640#4" to="768587358#1"/>
    <trip id="veh149" type="veh_passenger" depart="946.26" departLane="best" departSpeed="max" from="584723260#0" to="48005673"/>
    <trip id="veh150" type="veh_passenger" depart="952.61" departLane="best" from="584723260#1" to="1084501320#1"/>
    <trip id="veh151" type="veh_passenger" depart="958.96" departLane="best" from="527768888#4" to="-32042296#1"/>
    <trip id="veh152" type="veh_passenger" depart="965.31" departLane="best" departSpeed="max" from="624227657" to="624227618#3"/>
    <trip id="veh153" type="veh_passenger" depart="971.66" departLane="best" from="1092717624#2" to="527944560#1"/>
    <trip id="veh154" type="veh_passenger" depart="978.01" departLane="best" from="1079613305#0" to="1157847143#1"/>
    <trip id="veh155" type="veh_passenger" depart="984.37" departLane="best" from="527944560#1" to="1052675054#2"/>
    <trip id="veh156" type="veh_passenger" depart="990.72" departLane="best" from="-1232299197" to="-768587358#0"/>
    <trip id="veh157" type="veh_passenger" depart="997.07" departLane="best" from="1158098640#2" to="624227643#1"/>
    <trip id="veh158" type="veh_passenger" depart="1003.42" departLane="best" from="83861791#2" to="1092717624#2"/>
    <trip id="veh159" type="veh_passenger" depart="1009.77" departLane="best" from="28381271#3" to="1160736370"/>
    <trip id="veh160" type="veh_passenger" depart="1016.12" departLane="best" from="768587364#0" to="-41747641"/>
    <trip id="veh161" type="veh_passenger" depart="1022.47" departLane="best" from="83861791#3" to="-73273590"/>
    <trip id="veh162" type="veh_passenger" depart="1028.82" departLane="best" from="83861791#1" to="1084501320#0"/>
    <trip id="veh163" type="veh_passenger" depart="1035.17" departLane="best" from="540239607" to="1232299200#3"/>
    <trip id="veh164" type="veh_passenger" depart="1041.52" departLane="best" from="435282150#0" to="1157847491#1"/>
    <trip id="veh165" type="veh_passenger" depart="1047.87" departLane="best" from="27808806#2" to="-1333209940#0"/>
    <trip id="veh166" type="veh_passenger" depart="1054.22" departLane="best" from="1232299206#0" to="23174018#5"/>
    <trip id="veh167" type="veh_passenger" depart="1060.57" departLane="best" from="1157847491#1" to="301243903#2"/>
    <trip id="veh168" type="veh_passenger" depart="1066.93" departLane="best" from="-1084501320#0" to="-768587357"/>
    <trip id="veh169" type="veh_passenger" depart="1073.28" departLane="best" from="23254558#4" to="321370424"/>
    <trip id="veh171" type="veh_passenger" depart="1085.98" departLane="best" from="1232299199#0" to="23254558#5"/>
    <trip id="veh172" type="veh_passenger" depart="1092.33" departLane="best" departSpeed="max" from="31308290" to="1157849034#0"/>
    <trip id="veh173" type="veh_passenger" depart="1098.68" departLane="best" from="1158095208#1" to="624227617#0"/>
    <trip id="veh174" type="veh_passenger" depart="1105.03" departLane="best" from="429392335" to="1157846800"/>
    <trip id="veh175" type="veh_passenger" depart="1111.38" departLane="best" from="1158094953" to="1167747356#1"/>
    <trip id="veh176" type="veh_passenger" depart="1117.73" departLane="best" from="1233933462#2" to="1157846690#1"/>
    <trip id="veh177" type="veh_passenger" depart="1124.08" departLane="best" from="-73273590" to="1183700494"/>
    <trip id="veh178" type="veh_passenger" depart="1130.43" departLane="best" from="768587364#0" to="28218888#1"/>
    <trip id="veh179" type="veh_passenger" depart="1136.78" departLane="best" from="681217521#1" to="23254585#1"/>
    <trip id="veh180" type="veh_passenger" depart="1143.13" departLane="best" from="-1084501320#0" to="114382461#1"/>
    <trip id="veh181" type="veh_passenger" depart="1149.49" departLane="best" from="1241233211" to="23174024#2"/>
    <trip id="veh182" type="veh_passenger" depart="1155.84" departLane="best" departSpeed="max" from="31308290" to="1233933462#1"/>
    <trip id="veh183" type="veh_passenger" depart="1162.19" departLane="best" from="1333209940#0" to="1052675053#0"/>
    <trip id="veh184" type="veh_passenger" depart="1168.54" departLane="best" departSpeed="max" from="1350970529" to="681217518#1"/>
    <trip id="veh185" type="veh_passenger" depart="1174.89" departLane="best" from="527944560#1" to="-681217523"/>
    <trip id="veh186" type="veh_passenger" depart="1181.24" departLane="best" from="-301243903#0" to="1350937020"/>
    <trip id="veh187" type="veh_passenger" depart="1187.59" departLane="best" from="28381271#0" to="-1157849036#0"/>
    <trip id="veh188" type="veh_passenger" depart="1193.94" departLane="best" from="610008342" to="435282150#1"/>
    <trip id="veh189" type="veh_passenger" depart="1200.29" departLane="best" from="32042296#0" to="1052675054#1"/>
    <trip id="veh190" type="veh_passenger" depart="1206.64" departLane="best" from="1079613307" to="-1158095208#1"/>
    <trip id="veh191" type="veh_passenger" depart="1212.99" departLane="best" from="1157847143#1" to="1240474938#1"/>
    <trip id="veh192" type="veh_passenger" depart="1219.34" departLane="best" from="624227643#1" to="-24405341#3"/>
    <trip id="veh195" type="veh_passenger" depart="1238.40" departLane="best" from="154928480" to="1052675058"/>
    <trip id="veh196" type="veh_passenger" depart="1244.75" departLane="best" from="540239607" to="120840401"/>
    <trip id="veh197" type="veh_passenger" depart="1251.10" departLane="best" from="1052675055#1" to="83861791#0"/>
    <trip id="veh198" type="veh_passenger" depart="1257.45" departLane="best" from="23174018#4" to="-1240474934"/>
    <trip id="veh199" type="veh_passenger" depart="1263.80" departLane="best" from="1157847212#1" to="624227617#0"/>
    <trip id="veh201" type="veh_passenger" depart="1276.50" departLane="best" departSpeed="max" from="31308290" to="88088689#3"/>
    <trip id="veh202" type="veh_passenger" depart="1282.85" departLane="best" departSpeed="max" from="27808806#0" to="83861789#0"/>
    <trip id="veh203" type="veh_passenger" depart="1289.20" departLane="best" from="681217517" to="23254585#0"/>
    <trip id="veh204" type="veh_passenger" depart="1295.55" departLane="best" from="429392335" to="1272919044#1"/>
    <trip id="veh205" type="veh_passenger" depart="1301.90" departLane="best" from="624227616#0" to="154928476#1"/>
    <trip id="veh206" type="veh_passenger" depart="1308.25" departLane="best" from="681217518#1" to="429392825"/>
    <trip id="veh207" type="veh_passenger" depart="1314.60" departLane="best" departSpeed="max" from="1350970529" to="108126135"/>
    <trip id="veh208" type="veh_passenger" depart="1320.96" departLane="best" from="1157847212#1" to="24548318"/>
    <trip id="veh209" type="veh_passenger" depart="1327.31" departLane="best" from="47647257" to="1350965235#1"/>
    <trip id="veh210" type="veh_passenger" depart="1333.66" departLane="best" from="-28218888#2" to="1092717624#1"/>
    <trip id="veh211" type="veh_passenger" depart="1340.01" departLane="best" from="-28218888#1" to="114382461#0"/>
    <trip id="veh212" type="veh_passenger" depart="1346.36" departLane="best" from="23254585#0" to="-54179906#1"/>
    <trip id="veh213" type="veh_passenger" depart="1352.71" departLane="best" from="1157846524#0" to="28381271#3"/>
    <trip id="veh214" type="veh_passenger" depart="1359.06" departLane="best" from="429392335" to="-23254558#0"/>
    <trip id="veh217" type="veh_passenger" depart="1378.11" departLane="best" from="27685783#1" to="28381271#3"/>
    <trip id="veh218" type="veh_passenger" depart="1384.46" departLane="best" from="624227647" to="435282152#3"/>
    <trip id="veh219" type="veh_passenger" depart="1390.81" departLane="best" from="1232299204" to="-1084501321"/>
    <trip id="veh220" type="veh_passenger" depart="1397.16" departLane="best" from="1167747356#1" to="435282151#0"/>
    <trip id="veh221" type="veh_passenger" depart="1403.52" departLane="best" from="624227646#1" to="83861789#1"/>
    <trip id="veh225" type="veh_passenger" depart="1428.92" departLane="best" from="1158098640#5" to="28218888#3"/>
    <trip id="veh226" type="veh_passenger" depart="1435.27" departLane="best" from="1240474933" to="-624227655"/>
    <trip id="veh227" type="veh_passenger" depart="1441.62" departLane="best" from="28218245#0" to="-1158095485#1"/>
    <trip id="veh228" type="veh_passenger" depart="1447.97" departLane="best" from="-1232299199#0" to="-249215885#1"/>
    <trip id="veh229" type="veh_passenger" depart="1454.32" departLane="best" from="768587358#0" to="123306750"/>
    <trip id="veh230" type="veh_passenger" depart="1460.67" departLane="best" from="1333209940#0" to="1158098640#1"/>
    <trip id="veh231" type="veh_passenger" depart="1467.02" departLane="best" from="1092717620" to="1157848824#1"/>
    <trip id="veh232" type="veh_passenger" depart="1473.37" departLane="best" from="-46490661#4" to="1158098640#1"/>
    <trip id="veh233" type="veh_passenger" depart="1479.72" departLane="best" from="435282157#1" to="610008342"/>
    <trip id="veh234" type="veh_passenger" depart="1486.07" departLane="best" from="1157847491#1" to="-249215885#1"/>
    <trip id="veh235" type="veh_passenger" depart="1492.43" departLane="best" from="-1158097321" to="154928468#1"/>
    <trip id="veh236" type="veh_passenger" depart="1498.78" departLane="best" from="930774439" to="1158086293#1"/>
    <trip id="veh237" type="veh_passenger" depart="1505.13" departLane="best" from="301243903#1" to="46490661#3"/>
    <trip id="veh238" type="veh_passenger" depart="1511.48" departLane="best" from="301243903#2" to="435282151#0"/>
    <trip id="veh239" type="veh_passenger" depart="1517.83" departLane="best" from="83861788#1" to="-768587363"/>
    <trip id="veh240" type="veh_passenger" depart="1524.18" departLane="best" from="681217527#1" to="-610008329"/>
    <trip id="veh242" type="veh_passenger" depart="1536.88" departLane="best" from="24405341#1" to="1052675053#1"/>
    <trip id="veh243" type="veh_passenger" depart="1543.23" departLane="best" departSpeed="max" from="41747641" to="435282152#3"/>
    <trip id="veh244" type="veh_passenger" depart="1549.58" departLane="best" from="1052675054#2" to="23254522#3"/>
    <trip id="veh245" type="veh_passenger" depart="1555.93" departLane="best" from="435282155#1" to="-41747641"/>
    <trip id="veh246" type="veh_passenger" depart="1562.28" departLane="best" from="610008342" to="83861791#2"/>
    <trip id="veh247" type="veh_passenger" depart="1568.63" departLane="best" from="540239607" to="-1158095485#0"/>
    <trip id="veh248" type="veh_passenger" depart="1574.99" departLane="best" from="83861790" to="1158098733#1"/>
    <trip id="veh249" type="veh_passenger" depart="1581.34" departLane="best" departSpeed="max" from="429392338" to="-24405341#7"/>
    <trip id="veh250" type="veh_passenger" depart="1587.69" departLane="best" from="38963644" to="24405341#1"/>
    <trip id="veh251" type="veh_passenger" depart="1594.04" departLane="best" from="-46490661#6" to="435282157#1"/>
    <trip id="veh252" type="veh_passenger" depart="1600.39" departLane="best" from="681217524" to="88088689#1"/>
    <trip id="veh253" type="veh_passenger" depart="1606.74" departLane="best" from="527768888#3" to="1157853987"/>