<?xml version="1.0" encoding="UTF-8"?>

<!-- generated on 2025-05-05 21:28:52 by Eclipse SUMO netconvert Version 1.22.0
<netconvertConfiguration xmlns:xsi="http://www.w3.org/2001/XMLSchema-instance" xsi:noNamespaceSchemaLocation="http://sumo.dlr.de/xsd/netconvertConfiguration.xsd">

    <input>
        <type-files value="${SUMO_HOME}/data/typemap/osmNetconvert.typ.xml"/>
        <osm-files value="osm_bbox.osm.xml.gz"/>
    </input>

    <output>
        <output-file value="osm.net.xml.gz"/>
        <output.street-names value="true"/>
        <output.original-names value="true"/>
    </output>

    <projection>
        <proj.utm value="true"/>
    </projection>

    <processing>
        <geometry.remove value="true"/>
        <roundabouts.guess value="true"/>
    </processing>

    <tls_building>
        <tls.discard-simple value="true"/>
        <tls.join value="true"/>
        <tls.guess-signals value="true"/>
        <tls.default-type value="actuated"/>
    </tls_building>

    <ramp_guessing>
        <ramps.guess value="true"/>
    </ramp_guessing>

    <junctions>
        <junctions.join value="true"/>
        <junctions.corner-detail value="5"/>
    </junctions>

</netconvertConfiguration>
-->

<net version="1.20" junctionCornerDetail="5" limitTurnSpeed="5.50" xmlns:xsi="http://www.w3.org/2001/XMLSchema-instance" xsi:noNamespaceSchemaLocation="http://sumo.dlr.de/xsd/net_file.xsd">

    <location netOffset="-610226.89,-5153073.95" convBoundary="0.00,0.00,2332.95,1569.75" origBoundary="10.437353,46.522071,10.467581,46.536075" projParameter="+proj=utm +zone=32 +ellps=WGS84 +datum=WGS84 +units=m +no_defs"/>

    <type id="highway.footway" priority="1" numLanes="1" speed="2.78" allow="pedestrian" oneway="1" width="2.00"/>
    <type id="highway.path" priority="1" numLanes="1" speed="5.56" allow="pedestrian bicycle" oneway="0" width="2.00"/>
    <type id="highway.secondary" priority="11" numLanes="1" speed="27.78" disallow="tram rail_urban rail rail_electric rail_fast ship container cable_car subway aircraft wheelchair scooter drone" oneway="0"/>
    <type id="highway.service" priority="1" numLanes="1" speed="5.56" allow="pedestrian delivery bicycle" oneway="0"/>
    <type id="highway.steps" priority="1" numLanes="1" speed="1.39" allow="pedestrian" oneway="1" width="2.00"/>
    <type id="highway.track" priority="1" numLanes="1" speed="5.56" allow="pedestrian motorcycle moped bicycle" oneway="0"/>
    <type id="highway.unclassified" priority="4" numLanes="1" speed="13.89" disallow="tram rail_urban rail rail_electric rail_fast ship container cable_car subway aircraft wheelchair scooter drone" oneway="0"/>

    <edge id=":11526641499_0" function="internal">
        <lane id=":11526641499_0_0" index="0" allow="pedestrian bicycle" speed="2.89" length="2.92" width="2.00" shape="1205.49,754.75 1204.59,754.65 1204.14,754.32 1204.13,753.76 1204.57,752.97"/>
    </edge>
    <edge id=":12070022446_0" function="internal">
        <lane id=":12070022446_0_0" index="0" allow="pedestrian bicycle" speed="5.46" length="4.53" shape="1068.20,893.85 1067.27,893.89 1066.38,894.32 1065.55,895.14 1064.77,896.35"/>
    </edge>
    <edge id=":12070022446_1" function="internal">
        <lane id=":12070022446_1_0" index="0" disallow="tram rail_urban rail rail_electric rail_fast ship container cable_car subway aircraft wheelchair scooter drone" speed="10.16" length="8.25" shape="1068.20,893.85 1065.80,893.45 1064.13,892.98 1062.73,892.05 1061.11,890.28"/>
    </edge>
    <edge id=":12070022446_2" function="internal">
        <lane id=":12070022446_2_0" index="0" disallow="tram rail_urban rail rail_electric rail_fast ship container cable_car subway aircraft wheelchair scooter drone" speed="7.61" length="7.08" shape="1063.04,887.28 1063.84,888.49 1065.09,889.47 1066.78,890.22 1068.91,890.73"/>
    </edge>
    <edge id=":12070022446_3" function="internal">
        <lane id=":12070022446_3_0" index="0" allow="pedestrian bicycle" speed="9.20" length="2.82" shape="1063.04,887.28 1064.08,889.91"/>
    </edge>
    <edge id=":12070022446_7" function="internal">
        <lane id=":12070022446_7_0" index="0" allow="pedestrian bicycle" speed="9.20" length="6.62" shape="1064.08,889.91 1064.26,890.38 1064.96,892.92 1065.13,894.91 1064.77,896.35"/>
    </edge>
    <edge id=":12070022446_4" function="internal">
        <lane id=":12070022446_4_0" index="0" allow="pedestrian bicycle" speed="5.83" length="4.92" shape="1061.95,894.83 1062.32,893.75 1062.31,892.64 1061.91,891.48 1061.11,890.28"/>
    </edge>
    <edge id=":12070022446_5" function="internal">
        <lane id=":12070022446_5_0" index="0" allow="pedestrian bicycle" speed="7.28" length="8.68" shape="1061.95,894.83 1063.36,892.76 1064.99,891.39 1066.84,890.71 1068.91,890.73"/>
    </edge>
    <edge id=":12070022446_6" function="internal">
        <lane id=":12070022446_6_0" index="0" allow="pedestrian bicycle" speed="3.65" length="4.67" shape="1061.95,894.83 1063.22,894.16 1064.12,894.18 1064.63,894.91 1064.77,896.35"/>
    </edge>
    <edge id=":12070073337_0" function="internal">
        <lane id=":12070073337_0_0" index="0" disallow="tram rail_urban rail rail_electric rail_fast ship container cable_car subway aircraft wheelchair scooter drone" speed="3.65" length="4.67" shape="2301.88,1220.23 2303.03,1221.10 2303.38,1221.92 2302.93,1222.70 2301.68,1223.42"/>
    </edge>
    <edge id=":12198794977_0" function="internal">
        <lane id=":12198794977_0_0" index="0" allow="pedestrian delivery bicycle" speed="5.56" length="8.35" shape="1147.27,530.58 1146.56,531.61 1145.93,534.13 1145.44,536.88 1145.17,538.57"/>
    </edge>
    <edge id=":12198794977_1" function="internal">
        <lane id=":12198794977_1_0" index="0" allow="pedestrian bicycle" speed="5.56" length="10.09" shape="1147.27,530.58 1144.58,530.69 1142.95,531.93 1141.36,533.65 1138.79,535.20"/>
    </edge>
    <edge id=":12198794977_2" function="internal">
        <lane id=":12198794977_2_0" index="0" allow="pedestrian delivery bicycle" speed="5.42" length="5.94" shape="1147.27,530.58 1145.59,531.30 1144.46,531.16 1143.89,530.18 1143.87,528.35"/>
    </edge>
    <edge id=":12198794977_3" function="internal">
        <lane id=":12198794977_3_0" index="0" allow="pedestrian bicycle" speed="5.56" length="7.45" shape="1137.70,532.19 1140.27,531.15 1142.16,530.17 1143.36,529.24 1143.87,528.35"/>
    </edge>
    <edge id=":12198794977_4" function="internal">
        <lane id=":12198794977_4_0" index="0" allow="pedestrian bicycle" speed="5.56" length="13.51" shape="1137.70,532.19 1141.67,531.32 1144.24,532.09 1145.41,534.51 1145.17,538.57"/>
    </edge>
    <edge id=":12198794977_5" function="internal">
        <lane id=":12198794977_5_0" index="0" allow="pedestrian motorcycle moped bicycle" speed="3.65" length="4.67" shape="1137.70,532.19 1139.10,532.53 1139.75,533.15 1139.64,534.04 1138.79,535.20"/>
    </edge>
    <edge id=":12198794977_6" function="internal">
        <lane id=":12198794977_6_0" index="0" allow="pedestrian bicycle" speed="4.68" length="5.86" shape="1142.03,537.96 1142.13,536.20 1141.63,535.15 1140.51,534.82 1138.79,535.20"/>
    </edge>
    <edge id=":12198794977_7" function="internal">
        <lane id=":12198794977_7_0" index="0" allow="pedestrian delivery bicycle" speed="5.56" length="9.79" shape="1142.03,537.96 1143.87,528.35"/>
    </edge>
    <edge id=":12198794977_8" function="internal">
        <lane id=":12198794977_8_0" index="0" allow="pedestrian delivery bicycle" speed="3.65" length="4.67" shape="1142.03,537.96 1143.04,536.94 1143.90,536.69 1144.61,537.24 1145.17,538.57"/>
    </edge>
    <edge id=":1426115632_0" function="internal">
        <lane id=":1426115632_0_0" index="0" allow="pedestrian bicycle" speed="2.89" length="2.92" width="2.00" shape="2332.40,251.51 2333.31,251.53 2333.79,251.81 2333.85,252.36 2333.49,253.19"/>
    </edge>
    <edge id=":1426115722_0" function="internal">
        <lane id=":1426115722_0_0" index="0" allow="pedestrian delivery bicycle" speed="5.56" length="7.49" width="1.50" shape="1473.84,590.62 1471.97,589.43 1470.67,588.63 1469.31,587.94 1467.26,587.07"/>
    </edge>
    <edge id=":1426115722_1" function="internal">
        <lane id=":1426115722_1_0" index="0" allow="pedestrian bicycle" speed="5.18" length="8.41" width="1.50" shape="1473.84,590.62 1471.79,588.96 1471.10,587.40 1471.77,585.93 1473.81,584.57"/>
    </edge>
    <edge id=":1426115722_2" function="internal">
        <lane id=":1426115722_2_0" index="0" allow="pedestrian delivery bicycle" speed="2.50" length="2.19" width="1.50" shape="1473.84,590.62 1473.56,590.01 1473.60,589.59 1473.96,589.37 1474.64,589.35"/>
    </edge>
    <edge id=":1426115722_3" function="internal">
        <lane id=":1426115722_3_0" index="0" allow="pedestrian bicycle" speed="3.87" length="4.15" width="1.50" shape="1474.68,586.37 1473.66,587.05 1473.32,587.77 1473.64,588.54 1474.64,589.35"/>
    </edge>
    <edge id=":1426115722_4" function="internal">
        <lane id=":1426115722_4_0" index="0" allow="pedestrian bicycle" speed="5.56" length="7.67" width="1.50" shape="1474.68,586.37 1472.66,587.17 1470.75,587.55 1468.95,587.52 1467.26,587.07"/>
    </edge>
    <edge id=":1426115722_5" function="internal">
        <lane id=":1426115722_5_0" index="0" allow="pedestrian bicycle" speed="2.89" length="2.92" width="2.00" shape="1474.68,586.37 1473.79,586.24 1473.34,585.90 1473.35,585.34 1473.81,584.57"/>
    </edge>
    <edge id=":1426115722_6" function="internal">
        <lane id=":1426115722_6_0" index="0" allow="pedestrian bicycle" speed="5.56" length="6.23" width="1.50" shape="1467.82,585.68 1468.95,585.92 1470.33,585.81 1471.94,585.36 1473.81,584.57"/>
    </edge>
    <edge id=":1426115722_7" function="internal">
        <lane id=":1426115722_7_0" index="0" allow="pedestrian delivery bicycle" speed="5.56" length="7.76" width="1.50" shape="1467.82,585.68 1469.94,586.58 1471.35,587.29 1472.70,588.12 1474.64,589.35"/>
    </edge>
    <edge id=":1426115722_8" function="internal">
        <lane id=":1426115722_8_0" index="0" allow="pedestrian delivery bicycle" speed="2.50" length="2.19" width="1.50" shape="1467.82,585.68 1468.21,586.24 1468.24,586.66 1467.93,586.94 1467.26,587.07"/>
    </edge>
    <edge id=":1426115727_0" function="internal">
        <lane id=":1426115727_0_0" index="0" allow="pedestrian delivery bicycle" speed="2.50" length="2.19" width="1.50" shape="1495.32,602.33 1495.60,602.95 1495.56,603.37 1495.20,603.59 1494.53,603.60"/>
    </edge>
    <edge id=":1432117166_0" function="internal">
        <lane id=":1432117166_0_0" index="0" allow="pedestrian bicycle" speed="2.89" length="2.92" width="2.00" shape="816.40,-0.70 817.28,-0.89 817.82,-0.71 818.00,-0.19 817.83,0.70"/>
    </edge>
    <edge id=":1432117171_0" function="internal">
        <lane id=":1432117171_0_0" index="0" allow="pedestrian bicycle" speed="2.89" length="2.92" width="2.00" shape="593.43,7.44 593.09,6.60 593.17,6.05 593.66,5.78 594.56,5.79"/>
    </edge>
    <edge id=":1432117197_0" function="internal">
        <lane id=":1432117197_0_0" index="0" allow="pedestrian bicycle" speed="5.56" length="5.04" width="2.00" shape="721.59,59.63 720.60,58.55 719.76,57.96 718.76,57.63 717.30,57.33"/>
    </edge>
    <edge id=":1432117197_1" function="internal">
        <lane id=":1432117197_1_0" index="0" allow="pedestrian bicycle" speed="5.56" length="6.39" width="2.00" shape="721.59,59.63 720.78,58.33 720.37,56.89 720.37,55.31 720.77,53.58"/>
    </edge>
    <edge id=":1432117197_2" function="internal">
        <lane id=":1432117197_2_0" index="0" allow="pedestrian bicycle" speed="2.89" length="2.92" width="2.00" shape="721.59,59.63 721.50,58.73 721.72,58.22 722.26,58.09 723.13,58.35"/>
    </edge>
    <edge id=":1432117197_3" function="internal">
        <lane id=":1432117197_3_0" index="0" allow="pedestrian bicycle" speed="5.56" length="4.35" width="2.00" shape="722.67,54.22 722.37,55.43 722.35,56.52 722.60,57.50 723.13,58.35"/>
    </edge>
    <edge id=":1432117197_4" function="internal">
        <lane id=":1432117197_4_0" index="0" allow="pedestrian bicycle" speed="5.56" length="6.89" width="2.00" shape="722.67,54.22 721.84,55.88 720.67,56.95 719.15,57.44 717.30,57.33"/>
    </edge>
    <edge id=":1432117197_5" function="internal">
        <lane id=":1432117197_5_0" index="0" allow="pedestrian bicycle" speed="2.89" length="2.92" width="2.00" shape="722.67,54.22 721.95,54.77 721.40,54.84 721.01,54.45 720.77,53.58"/>
    </edge>
    <edge id=":1432117197_6" function="internal">
        <lane id=":1432117197_6_0" index="0" allow="pedestrian bicycle" speed="4.62" length="3.97" width="2.00" shape="717.68,55.37 718.75,55.43 719.62,55.15 720.30,54.53 720.77,53.58"/>
    </edge>
    <edge id=":1432117197_7" function="internal">
        <lane id=":1432117197_7_0" index="0" allow="pedestrian bicycle" speed="5.56" length="6.42" width="2.00" shape="717.68,55.37 719.54,55.75 720.80,56.19 721.87,56.96 723.13,58.35"/>
    </edge>
    <edge id=":1432117197_8" function="internal">
        <lane id=":1432117197_8_0" index="0" allow="pedestrian bicycle" speed="2.89" length="2.92" width="2.00" shape="717.68,55.37 718.32,56.01 718.47,56.54 718.13,56.99 717.30,57.33"/>
    </edge>
    <edge id=":1837811270_0" function="internal">
        <lane id=":1837811270_0_0" index="0" disallow="tram rail_urban rail rail_electric rail_fast ship container cable_car subway aircraft wheelchair scooter drone" speed="16.67" length="7.07" shape="474.82,1123.83 472.26,1130.42"/>
    </edge>
    <edge id=":1837811270_1" function="internal">
        <lane id=":1837811270_1_0" index="0" allow="pedestrian bicycle" speed="6.22" length="2.74" width="2.00" shape="474.82,1123.83 473.48,1126.00 473.31,1126.09"/>
    </edge>
    <edge id=":1837811270_7" function="internal">
        <lane id=":1837811270_7_0" index="0" allow="pedestrian bicycle" speed="6.22" length="7.23" width="2.00" shape="473.31,1126.09 471.69,1126.91 469.46,1126.53 466.77,1124.89"/>
    </edge>
    <edge id=":1837811270_2" function="internal">
        <lane id=":1837811270_2_0" index="0" allow="pedestrian bicycle" speed="4.39" length="4.80" width="2.00" shape="468.01,1123.32 469.27,1124.08 470.33,1124.22 471.19,1123.74 471.84,1122.65"/>
    </edge>
    <edge id=":1837811270_3" function="internal">
        <lane id=":1837811270_3_0" index="0" allow="pedestrian bicycle" speed="7.14" length="8.77" width="2.00" shape="468.01,1123.32 470.27,1125.33 471.74,1127.19 472.40,1128.89 472.26,1130.42"/>
    </edge>
    <edge id=":1837811270_4" function="internal">
        <lane id=":1837811270_4_0" index="0" allow="pedestrian bicycle" speed="2.89" length="2.92" width="2.00" shape="468.01,1123.32 468.29,1124.17 468.18,1124.72 467.67,1124.96 466.77,1124.89"/>
    </edge>
    <edge id=":1837811270_5" function="internal">
        <lane id=":1837811270_5_0" index="0" allow="pedestrian bicycle" speed="5.84" length="5.39" width="2.00" shape="469.26,1129.31 469.37,1128.32 468.99,1127.25 468.13,1126.11 466.77,1124.89"/>
    </edge>
    <edge id=":1837811270_6" function="internal">
        <lane id=":1837811270_6_0" index="0" disallow="tram rail_urban rail rail_electric rail_fast ship container cable_car subway aircraft wheelchair scooter drone" speed="16.67" length="7.14" shape="469.26,1129.31 471.84,1122.65"/>
    </edge>
    <edge id=":1837811380_0" function="internal">
        <lane id=":1837811380_0_0" index="0" disallow="tram rail_urban rail rail_electric rail_fast ship container cable_car subway aircraft wheelchair scooter drone" speed="3.65" length="4.67" shape="17.14,1527.56 15.74,1527.92 14.88,1527.69 14.55,1526.86 14.74,1525.43"/>
    </edge>
    <edge id=":1870502970_0" function="internal">
        <lane id=":1870502970_0_0" index="0" allow="pedestrian bicycle" speed="2.89" length="2.92" width="2.00" shape="1180.88,957.03 1181.53,956.40 1182.07,956.26 1182.51,956.61 1182.84,957.44"/>
    </edge>
    <edge id=":1870502976_0" function="internal">
        <lane id=":1870502976_0_0" index="0" allow="pedestrian bicycle" speed="5.56" length="9.07" width="2.00" shape="1174.05,975.71 1171.74,976.11 1170.37,977.31 1169.95,979.32 1170.47,982.12"/>
    </edge>
    <edge id=":1870502976_1" function="internal">
        <lane id=":1870502976_1_0" index="0" allow="pedestrian bicycle" speed="5.56" length="9.70" width="2.00" shape="1174.05,975.71 1171.29,975.98 1169.51,976.77 1167.90,978.08 1165.64,979.91"/>
    </edge>
    <edge id=":1870502976_2" function="internal">
        <lane id=":1870502976_2_0" index="0" allow="pedestrian bicycle" speed="2.89" length="2.92" width="2.00" shape="1174.05,975.71 1173.30,975.21 1173.05,974.71 1173.30,974.21 1174.05,973.71"/>
    </edge>
    <edge id=":1870502976_3" function="internal">
        <lane id=":1870502976_3_0" index="0" allow="pedestrian bicycle" speed="5.56" length="10.93" width="2.00" shape="1164.46,978.30 1166.96,976.33 1168.90,974.90 1171.01,974.01 1174.05,973.71"/>
    </edge>
    <edge id=":1870502976_4" function="internal">
        <lane id=":1870502976_4_0" index="0" allow="pedestrian bicycle" speed="5.56" length="8.75" width="2.00" shape="1164.46,978.30 1166.31,977.46 1167.93,977.82 1169.32,979.37 1170.47,982.12"/>
    </edge>
    <edge id=":1870502976_5" function="internal">
        <lane id=":1870502976_5_0" index="0" allow="pedestrian bicycle" speed="2.89" length="2.92" width="2.00" shape="1164.46,978.30 1165.36,978.26 1165.86,978.51 1165.96,979.06 1165.64,979.91"/>
    </edge>
    <edge id=":1870502976_6" function="internal">
        <lane id=":1870502976_6_0" index="0" allow="pedestrian bicycle" speed="3.91" length="3.73" width="2.00" shape="1168.20,981.55 1167.71,980.38 1167.12,979.71 1166.43,979.56 1165.64,979.91"/>
    </edge>
    <edge id=":1870502976_7" function="internal">
        <lane id=":1870502976_7_0" index="0" allow="pedestrian bicycle" speed="5.56" length="12.15" width="2.00" shape="1168.20,981.55 1167.65,978.12 1168.44,975.67 1170.58,974.20 1174.05,973.71"/>
    </edge>
    <edge id=":1870502976_8" function="internal">
        <lane id=":1870502976_8_0" index="0" allow="pedestrian bicycle" speed="3.05" length="3.42" width="2.00" shape="1168.20,981.55 1168.98,980.84 1169.62,980.70 1170.12,981.13 1170.47,982.12"/>
    </edge>
    <edge id=":2363378279_0" function="internal">
        <lane id=":2363378279_0_0" index="0" allow="pedestrian motorcycle moped bicycle" speed="5.56" length="13.39" shape="1110.55,574.82 1111.18,571.14 1110.14,569.48 1107.44,569.84 1103.07,572.22"/>
    </edge>
    <edge id=":2363378279_1" function="internal">
        <lane id=":2363378279_1_0" index="0" allow="pedestrian motorcycle moped bicycle" speed="5.56" length="15.36" shape="1110.55,574.82 1111.04,570.96 1110.94,566.87 1111.25,563.04 1112.96,559.96"/>
    </edge>
    <edge id=":2363378279_2" function="internal">
        <lane id=":2363378279_2_0" index="0" allow="pedestrian motorcycle moped bicycle" speed="4.60" length="7.78" shape="1110.55,574.82 1109.78,572.55 1110.06,571.09 1111.41,570.44 1113.80,570.61"/>
    </edge>
    <edge id=":2363378279_3" function="internal">
        <lane id=":2363378279_3_0" index="0" allow="pedestrian motorcycle moped bicycle" speed="5.56" length="8.55" shape="1115.14,562.30 1114.50,563.34 1114.06,565.07 1113.83,567.49 1113.80,570.61"/>
    </edge>
    <edge id=":2363378279_4" function="internal">
        <lane id=":2363378279_4_0" index="0" allow="pedestrian motorcycle moped bicycle" speed="5.56" length="15.64" shape="1115.14,562.30 1112.30,564.90 1109.30,567.51 1106.21,570.00 1103.07,572.22"/>
    </edge>
    <edge id=":2363378279_5" function="internal">
        <lane id=":2363378279_5_0" index="0" allow="pedestrian motorcycle moped bicycle" speed="3.65" length="4.67" shape="1115.14,562.30 1113.72,562.53 1112.88,562.22 1112.63,561.36 1112.96,559.96"/>
    </edge>
    <edge id=":2363378279_6" function="internal">
        <lane id=":2363378279_6_0" index="0" allow="pedestrian motorcycle moped bicycle" speed="5.56" length="15.10" shape="1101.33,569.54 1104.40,567.37 1107.34,565.00 1110.19,562.50 1112.96,559.96"/>
    </edge>
    <edge id=":2363378279_7" function="internal">
        <lane id=":2363378279_7_0" index="0" allow="pedestrian motorcycle moped bicycle" speed="5.56" length="16.38" shape="1101.33,569.54 1106.71,566.60 1110.58,565.80 1112.95,567.14 1113.80,570.61"/>
    </edge>
    <edge id=":2363378279_8" function="internal">
        <lane id=":2363378279_8_0" index="0" allow="pedestrian motorcycle moped bicycle" speed="3.65" length="4.67" shape="1101.33,569.54 1102.77,569.56 1103.54,570.01 1103.64,570.90 1103.07,572.22"/>
    </edge>
    <edge id=":2363378281_0" function="internal">
        <lane id=":2363378281_0_0" index="0" allow="pedestrian delivery bicycle" speed="5.56" length="4.96" shape="1191.37,573.54 1190.30,573.14 1189.15,573.05 1187.92,573.27 1186.61,573.79"/>
    </edge>
    <edge id=":2363378281_1" function="internal">
        <lane id=":2363378281_1_0" index="0" allow="pedestrian delivery bicycle" speed="5.56" length="7.99" shape="1191.37,573.54 1189.80,572.44 1188.58,570.99 1187.69,569.21 1187.15,567.09"/>
    </edge>
    <edge id=":2363378281_2" function="internal">
        <lane id=":2363378281_2_0" index="0" allow="pedestrian delivery bicycle" speed="3.65" length="4.67" shape="1191.37,573.54 1190.69,572.26 1190.71,571.37 1191.44,570.85 1192.88,570.71"/>
    </edge>
    <edge id=":2363378281_3" function="internal">
        <lane id=":2363378281_3_0" index="0" allow="pedestrian delivery bicycle" speed="5.56" length="5.05" shape="1190.31,566.58 1190.65,567.97 1191.20,569.12 1191.94,570.04 1192.88,570.71"/>
    </edge>
    <edge id=":2363378281_4" function="internal">
        <lane id=":2363378281_4_0" index="0" allow="pedestrian delivery bicycle" speed="5.56" length="8.75" shape="1190.31,566.58 1190.38,568.89 1189.79,570.86 1188.53,572.50 1186.61,573.79"/>
    </edge>
    <edge id=":2363378281_5" function="internal">
        <lane id=":2363378281_5_0" index="0" allow="pedestrian delivery bicycle" speed="3.65" length="4.67" shape="1190.31,566.58 1189.71,567.89 1188.99,568.41 1188.13,568.15 1187.15,567.09"/>
    </edge>
    <edge id=":2363378281_6" function="internal">
        <lane id=":2363378281_6_0" index="0" allow="pedestrian delivery bicycle" speed="5.46" length="4.66" shape="1185.18,570.92 1186.20,570.24 1186.87,569.37 1187.19,568.32 1187.15,567.09"/>
    </edge>
    <edge id=":2363378281_7" function="internal">
        <lane id=":2363378281_7_0" index="0" allow="pedestrian delivery bicycle" speed="5.56" length="8.01" shape="1185.18,570.92 1187.23,570.13 1189.20,569.83 1191.08,570.02 1192.88,570.71"/>
    </edge>
    <edge id=":2363378281_8" function="internal">
        <lane id=":2363378281_8_0" index="0" allow="pedestrian delivery bicycle" speed="3.65" length="4.67" shape="1185.18,570.92 1186.61,571.11 1187.33,571.64 1187.33,572.54 1186.61,573.79"/>
    </edge>
    <edge id=":2363378290_0" function="internal">
        <lane id=":2363378290_0_0" index="0" allow="pedestrian delivery bicycle" speed="5.56" length="7.63" width="1.50" shape="1222.69,603.43 1220.71,604.46 1219.47,605.40 1218.48,606.63 1217.22,608.50"/>
    </edge>
    <edge id=":2363378290_1" function="internal">
        <lane id=":2363378290_1_0" index="0" allow="pedestrian delivery bicycle" speed="5.56" length="8.85" width="1.50" shape="1222.69,603.43 1219.87,604.48 1217.64,604.68 1216.02,604.01 1214.99,602.47"/>
    </edge>
    <edge id=":2363378290_2" function="internal">
        <lane id=":2363378290_2_0" index="0" allow="pedestrian delivery bicycle" speed="2.50" length="2.19" width="1.50" shape="1222.69,603.43 1222.02,603.33 1221.69,603.07 1221.70,602.65 1222.05,602.07"/>
    </edge>
    <edge id=":2363378290_3" function="internal">
        <lane id=":2363378290_3_0" index="0" allow="pedestrian delivery bicycle" speed="4.80" length="4.73" width="1.50" shape="1217.99,601.36 1218.56,602.25 1219.42,602.66 1220.58,602.60 1222.05,602.07"/>
    </edge>
    <edge id=":2363378290_4" function="internal">
        <lane id=":2363378290_4_0" index="0" allow="pedestrian delivery bicycle" speed="5.56" length="7.47" shape="1217.99,601.36 1218.48,603.25 1218.51,605.07 1218.09,606.82 1217.22,608.50"/>
    </edge>
    <edge id=":2363378290_5" function="internal">
        <lane id=":2363378290_5_0" index="0" allow="pedestrian delivery bicycle" speed="3.65" length="4.67" shape="1217.99,601.36 1217.66,602.76 1217.05,603.42 1216.16,603.32 1214.99,602.47"/>
    </edge>
    <edge id=":2363378290_6" function="internal">
        <lane id=":2363378290_6_0" index="0" allow="pedestrian delivery bicycle" speed="5.56" length="4.44" shape="1214.56,606.72 1215.07,605.73 1215.31,604.70 1215.29,603.61 1214.99,602.47"/>
    </edge>
    <edge id=":2363378290_7" function="internal">
        <lane id=":2363378290_7_0" index="0" allow="pedestrian delivery bicycle" speed="5.56" length="9.03" width="1.50" shape="1214.56,606.72 1216.21,604.72 1217.73,603.74 1219.54,603.08 1222.05,602.07"/>
    </edge>
    <edge id=":2363378290_8" function="internal">
        <lane id=":2363378290_8_0" index="0" allow="pedestrian delivery bicycle" speed="3.65" length="4.67" shape="1214.56,606.72 1215.89,606.17 1216.78,606.28 1217.22,607.06 1217.22,608.50"/>
    </edge>
    <edge id=":2363378292_0" function="internal">
        <lane id=":2363378292_0_0" index="0" allow="pedestrian bicycle" speed="5.56" length="4.59" shape="1065.98,629.84 1065.07,629.09 1064.41,628.19 1064.00,627.16 1063.84,625.99"/>
    </edge>
    <edge id=":2363378292_1" function="internal">
        <lane id=":2363378292_1_0" index="0" allow="pedestrian delivery bicycle" speed="3.65" length="1.44" shape="1065.98,629.84 1065.42,628.51"/>
    </edge>
    <edge id=":2363378292_4" function="internal">
        <lane id=":2363378292_4_0" index="0" allow="pedestrian delivery bicycle" speed="3.65" length="3.23" shape="1065.42,628.51 1065.53,627.62 1066.31,627.18 1067.75,627.18"/>
    </edge>
    <edge id=":2363378292_2" function="internal">
        <lane id=":2363378292_2_0" index="0" allow="pedestrian bicycle" speed="4.07" length="1.53" shape="1067.04,625.89 1067.09,626.28 1067.23,626.63 1067.45,626.92 1067.75,627.18"/>
    </edge>
    <edge id=":2363378292_3" function="internal">
        <lane id=":2363378292_3_0" index="0" allow="pedestrian motorcycle moped bicycle" speed="3.65" length="1.33" shape="1067.04,625.89 1066.33,627.02"/>
    </edge>
    <edge id=":2363378292_5" function="internal">
        <lane id=":2363378292_5_0" index="0" allow="pedestrian motorcycle moped bicycle" speed="3.65" length="3.34" shape="1066.33,627.02 1066.27,627.11 1065.49,627.54 1064.67,627.16 1063.84,625.99"/>
    </edge>
    <edge id=":2465938763_0" function="internal">
        <lane id=":2465938763_0_0" index="0" allow="pedestrian delivery bicycle" speed="4.84" length="5.29" shape="1001.38,823.35 999.90,823.11 998.81,823.44 998.09,824.33 997.76,825.79"/>
    </edge>
    <edge id=":2465938763_1" function="internal">
        <lane id=":2465938763_1_0" index="0" disallow="tram rail_urban rail rail_electric rail_fast ship container cable_car subway aircraft wheelchair scooter drone" speed="16.67" length="9.56" shape="1001.38,823.35 992.25,820.50"/>
    </edge>
    <edge id=":2465938763_2" function="internal">
        <lane id=":2465938763_2_0" index="0" disallow="tram rail_urban rail rail_electric rail_fast ship container cable_car subway aircraft wheelchair scooter drone" speed="16.67" length="9.57" shape="993.20,817.45 1002.34,820.29"/>
    </edge>
    <edge id=":2465938763_3" function="internal">
        <lane id=":2465938763_3_0" index="0" allow="pedestrian delivery bicycle" speed="7.53" length="2.90" shape="993.20,817.45 995.40,818.56 995.68,818.90"/>
    </edge>
    <edge id=":2465938763_7" function="internal">
        <lane id=":2465938763_7_0" index="0" allow="pedestrian delivery bicycle" speed="7.53" length="7.47" shape="995.68,818.90 996.89,820.32 997.68,822.73 997.76,825.79"/>
    </edge>
    <edge id=":2465938763_4" function="internal">
        <lane id=":2465938763_4_0" index="0" allow="pedestrian delivery bicycle" speed="5.89" length="6.01" shape="994.57,825.53 994.55,823.64 994.16,822.17 993.39,821.13 992.25,820.50"/>
    </edge>
    <edge id=":2465938763_5" function="internal">
        <lane id=":2465938763_5_0" index="0" allow="pedestrian delivery bicycle" speed="6.72" length="11.33" shape="994.57,825.53 995.28,822.40 996.81,820.48 999.17,819.78 1002.34,820.29"/>
    </edge>
    <edge id=":2465938763_6" function="internal">
        <lane id=":2465938763_6_0" index="0" allow="pedestrian delivery bicycle" speed="3.65" length="4.67" shape="994.57,825.53 995.46,824.40 996.29,824.07 997.06,824.53 997.76,825.79"/>
    </edge>
    <edge id=":2465938788_0" function="internal">
        <lane id=":2465938788_0_0" index="0" disallow="tram rail_urban rail rail_electric rail_fast ship container cable_car subway aircraft wheelchair scooter drone" speed="16.67" length="0.10" shape="79.41,1470.03 79.41,1470.03"/>
    </edge>
    <edge id=":2465938788_1" function="internal">
        <lane id=":2465938788_1_0" index="0" disallow="tram rail_urban rail rail_electric rail_fast ship container cable_car subway aircraft wheelchair scooter drone" speed="16.67" length="0.10" shape="76.28,1469.35 76.28,1469.35"/>
    </edge>
    <edge id=":2465938791_0" function="internal">
        <lane id=":2465938791_0_0" index="0" disallow="tram rail_urban rail rail_electric rail_fast ship container cable_car subway aircraft wheelchair scooter drone" speed="16.67" length="0.10" shape="75.17,1489.65 75.15,1489.73"/>
    </edge>
    <edge id=":2465938791_1" function="internal">
        <lane id=":2465938791_1_0" index="0" disallow="tram rail_urban rail rail_electric rail_fast ship container cable_car subway aircraft wheelchair scooter drone" speed="16.67" length="0.10" shape="72.06,1488.89 72.04,1488.97"/>
    </edge>