<?xml version="1.0" encoding="UTF-8"?>

<!-- generated on 2025-05-05 21:28:55.431651 by osmWebWizard.py UNKNOWN
<configuration>
    <net-file value="/home/chartist/sumo/tools/2025-05-05-21-28-42/osm.net.xml.gz"/>
    <output-trip-file value="/home/chartist/sumo/tools/2025-05-05-21-28-42/osm.passenger.trips.xml"/>
    <route-file value="/home/chartist/sumo/tools/2025-05-05-21-28-42/osm.passenger.rou.xml"/>
    <prefix value="veh"/>
    <trip-attributes value="departLane=&quot;best&quot;"/>
    <fringe-start-attributes value="departSpeed=&quot;max&quot;"/>
    <vehicle-class value="passenger"/>
    <lanes value="True"/>
    <fringe-factor value="5"/>
    <allow-fringe.min-length value="1000.0"/>
    <via-edge-types value="highway.motorway,highway.motorway_link,highway.trunk_link,highway.primary_link,highway.secondary_link,highway.tertiary_link"/>
    <min-distance value="300.0"/>
    <min-distance.fringe value="10.0"/>
    <remove-loops value="True"/>
    <validate value="True"/>
    <insertion-density value="12.0"/>
</configuration>
-->

<!-- generated on 2025-05-05 21:28:55 by Eclipse SUMO duarouter Version 1.22.0
<duarouterConfiguration xmlns:xsi="http://www.w3.org/2001/XMLSchema-instance" xsi:noNamespaceSchemaLocation="http://sumo.dlr.de/xsd/duarouterConfiguration.xsd">

    <input>
        <net-file value="/home/chartist/sumo/tools/2025-05-05-21-28-42/osm.net.xml.gz"/>
        <route-files value="/home/chartist/sumo/tools/2025-05-05-21-28-42/osm.passenger.trips.xml"/>
    </input>

    <output>
        <output-file value="/home/chartist/sumo/tools/2025-05-05-21-28-42/osm.passenger.trips.xml.tmp"/>
        <alternatives-output value="NUL"/>
        <write-trips value="true"/>
    </output>

    <processing>
        <remove-loops value="true"/>
    </processing>

    <time>
        <begin value="0.0"/>
        <end value="3600.0"/>
    </time>

    <report>
        <no-warnings value="true"/>
        <ignore-errors value="true"/>
        <no-step-log value="true"/>
    </report>

</duarouterConfiguration>
-->

<routes xmlns:xsi="http://www.w3.org/2001/XMLSchema-instance" xsi:noNamespaceSchemaLocation="http://sumo.dlr.de/xsd/routes_file.xsd">
    <vType id="veh_passenger" vClass="passenger"/>
    <trip id="veh0" type="veh_passenger" depart="0.00" departLane="best" from="-238798014" to="-1181320300"/>
    <trip id="veh1" type="veh_passenger" depart="22.05" departLane="best" from="-31053075#3" to="238798011"/>
    <trip id="veh2" type="veh_passenger" depart="44.11" departLane="best" departSpeed="max" from="767626960#0" to="184815465#1"/>
    <trip id="veh3" type="veh_passenger" depart="66.16" departLane="best" from="73261783#1" to="1181320300"/>
    <trip id="veh4" type="veh_passenger" depart="88.22" departLane="best" from="-238798015" to="-1181320300"/>
    <trip id="veh5" type="veh_passenger" depart="110.27" departLane="best" from="-1181320300" to="31053075#1"/>
    <trip id="veh6" type="veh_passenger" depart="132.33" departLane="best" from="-238798015" to="-184815465#2"/>
    <trip id="veh7" type="veh_passenger" depart="154.38" departLane="best" from="406043336#2" to="172951992#2"/>
    <trip id="veh8" type="veh_passenger" depart="176.44" departLane="best" from="406043336#2" to="238798014"/>
    <trip id="veh9" type="veh_passenger" depart="198.49" departLane="best" from="406043336#0" to="238798016"/>
    <trip id="veh10" type="veh_passenger" depart="220.55" departLane="best" from="767626960#1" to="73261783#0"/>
    <trip id="veh11" type="veh_passenger" depart="242.60" departLane="best" from="406043336#2" to="238798016"/>
    <trip id="veh12" type="veh_passenger" depart="264.65" departLane="best" from="-172951992#0" to="-767626960#2"/>
    <trip id="veh13" type="veh_passenger" depart="286.71" departLane="best" from="406043336#2" to="172951992#2"/>
    <trip id="veh14" type="veh_passenger" depart="308.76" departLane="best" from="434566255" to="238798011"/>
    <trip id="veh15" type="veh_passenger" depart="330.82" departLane="best" from="-31053075#1" to="172951992#0"/>
    <trip id="veh16" type="veh_passenger" depart="352.87" departLane="best" from="-238798015" to="-406043336#1"/>
    <trip id="veh17" type="veh_passenger" depart="374.93" departLane="best" from="-238798014" to="-73261783#2"/>
    <trip id="veh18" type="veh_passenger" depart="396.98" departLane="best" from="-31053075#1" to="73261783#2"/>
    <trip id="veh19" type="veh_passenger" depart="419.04" departLane="best" from="-238798015" to="-184815465#3"/>
    <trip id="veh20" type="veh_passenger" depart="441.09" departLane="best" departSpeed="max" from="-238798011" to="-767626960#0"/>
    <trip id="veh21" type="veh_passenger" depart="463.14" departLane="best" from="801316205" to="238798011"/>
    <trip id="veh22" type="veh_passenger" depart="485.20" departLane="best" from="172951992#2" to="238798011"/>
    <trip id="veh23" type="veh_passenger" depart="507.25" departLane="best" from="-238798015" to="-172951992#0"/>
    <trip id="veh24" type="veh_passenger" depart="529.31" departLane="best" from="-238798014" to="-767626960#0"/>
    <trip id="veh25" type="veh_passenger" depart="551.36" departLane="best" from="73261783#2" to="434566255"/>
    <trip id="veh26" type="veh_passenger" depart="573.42" departLane="best" from="-238798015" to="-767626960#0"/>
    <trip id="veh27" type="veh_passenger" depart="595.47" departLane="best" departSpeed="max" from="767626960#0" to="767626960#1"/>
    <trip id="veh28" type="veh_passenger" depart="617.53" departLane="best" from="-1107344739" to="-406043336#0"/>
    <trip id="veh29" type="veh_passenger" depart="639.58" departLane="best" from="-434566255" to="31053075#3"/>
    <trip id="veh30" type="veh_passenger" depart="661.64" departLane="best" from="801316205" to="172951992#0"/>
    <trip id="veh31" type="veh_passenger" depart="683.69" departLane="best" from="184815465#1" to="172951992#1"/>
    <trip id="veh32" type="veh_passenger" depart="705.74" departLane="best" from="184815465#3" to="238798011"/>
    <trip id="veh33" type="veh_passenger" depart="727.80" departLane="best" from="-406043336#1" to="-767626960#0"/>
    <trip id="veh34" type="veh_passenger" depart="749.85" departLane="best" from="-184815465#0" to="-767626960#0"/>
    <trip id="veh35" type="veh_passenger" depart="771.91" departLane="best" from="801316205" to="172951992#1"/>
    <trip id="veh36" type="veh_passenger" depart="793.96" departLane="best" from="767626960#2" to="406043336#1"/>
    <trip id="veh37" type="veh_passenger" depart="816.02" departLane="best" from="172951992#2" to="238798015"/>
    <trip id="veh38" type="veh_passenger" depart="838.07" departLane="best" from="-31053075#0" to="172951992#1"/>
    <trip id="veh39" type="veh_passenger" depart="860.13" departLane="best" from="-31053075#1" to="238798011"/>
    <trip id="veh40" type="veh_passenger" depart="882.18" departLane="best" from="-184815465#3" to="-767626960#0"/>
    <trip id="veh41" type="veh_passenger" depart="904.23" departLane="best" departSpeed="max" from="767626960#0" to="406043336#2"/>
    <trip id="veh42" type="veh_passenger" depart="926.29" departLane="best" from="-31053075#3" to="238798011"/>
    <trip id="veh43" type="veh_passenger" depart="948.34" departLane="best" from="184815465#2" to="238798015"/>
    <trip id="veh44" type="veh_passenger" depart="970.40" departLane="best" from="310699113" to="172951992#2"/>
    <trip id="veh45" type="veh_passenger" depart="992.45" departLane="best" from="406043336#0" to="172951992#1"/>
    <trip id="veh46" type="veh_passenger" depart="1014.51" departLane="best" from="-1107344739" to="-73261783#0"/>
    <trip id="veh47" type="veh_passenger" depart="1036.56" departLane="best" departSpeed="max" from="767626960#0" to="406043336#0"/>
    <trip id="veh48" type="veh_passenger" depart="1058.62" departLane="best" from="-31053075#3" to="172951992#1"/>
    <trip id="veh49" type="veh_passenger" depart="1080.67" departLane="best" departSpeed="max" from="767626960#0" to="767626960#0"/>
    <trip id="veh50" type="veh_passenger" depart="1102.73" departLane="best" from="310699113" to="238798014"/>
    <trip id="veh51" type="veh_passenger" depart="1124.78" departLane="best" from="767626960#1" to="172951992#2"/>
    <trip id="veh52" type="veh_passenger" depart="1146.83" departLane="best" from="172951992#1" to="238798016"/>
    <trip id="veh53" type="veh_passenger" depart="1168.89" departLane="best" from="-238798014" to="-434566255"/>
    <trip id="veh54" type="veh_passenger" depart="1190.94" departLane="best" from="801316205" to="238798011"/>
    <trip id="veh55" type="veh_passenger" depart="1213.00" departLane="best" from="-238798015" to="31053075#3"/>
    <trip id="veh56" type="veh_passenger" depart="1235.05" departLane="best" from="184815465#0" to="238798011"/>
    <trip id="veh57" type="veh_passenger" depart="1257.11" departLane="best" from="-238798015" to="-73261783#0"/>
    <trip id="veh58" type="veh_passenger" depart="1279.16" departLane="best" departSpeed="max" from="767626960#0" to="184815465#1"/>
    <trip id="veh59" type="veh_passenger" depart="1301.22" departLane="best" from="767626960#1" to="31053075#3"/>
    <trip id="veh60" type="veh_passenger" depart="1323.27" departLane="best" from="-184815465#2" to="-767626960#0"/>
    <trip id="veh61" type="veh_passenger" depart="1345.33" departLane="best" from="-73261783#1" to="-767626960#2"/>
    <trip id="veh62" type="veh_passenger" depart="1367.38" departLane="best" from="-31053075#3" to="238798011"/>
    <trip id="veh63" type="veh_passenger" depart="1389.43" departLane="best" from="767626960#2" to="184815465#2"/>
    <trip id="veh64" type="veh_passenger" depart="1411.49" departLane="best" departSpeed="max" from="-238798011" to="-767626960#1"/>
    <trip id="veh65" type="veh_passenger" depart="1433.54" departLane="best" from="-31053075#0" to="73261783#2"/>
    <trip id="veh66" type="veh_passenger" depart="1455.60" departLane="best" from="-73261783#2" to="-406043336#1"/>
    <trip id="veh67" type="veh_passenger" depart="1477.65" departLane="best" from="767626960#1" to="73261783#2"/>
    <trip id="veh68" type="veh_passenger" depart="1499.71" departLane="best" from="73261783#1" to="238798016"/>
    <trip id="veh69" type="veh_passenger" depart="1521.76" departLane="best" from="73261783#0" to="172951992#1"/>
    <trip id="veh70" type="veh_passenger" depart="1543.82" departLane="best" from="-767626960#0" to="-767626960#0"/>
    <trip id="veh71" type="veh_passenger" depart="1565.87" departLane="best" from="767626960#1" to="801316205"/>
    <trip id="veh72" type="veh_passenger" depart="1587.92" departLane="best" from="172951992#2" to="238798015"/>
    <trip id="veh73" type="veh_passenger" depart="1609.98" departLane="best" departSpeed="max" from="-238798011" to="-406043336#2"/>
    <trip id="veh74" type="veh_passenger" depart="1632.03" departLane="best" from="767626960#1" to="184815465#1"/>
    <trip id="veh75" type="veh_passenger" depart="1654.09" departLane="best" from="-172951992#1" to="31053075#0"/>
    <trip id="veh76" type="veh_passenger" depart="1676.14" departLane="best" from="-172951992#1" to="-184815465#1"/>
    <trip id="veh77" type="veh_passenger" depart="1698.20" departLane="best" departSpeed="max" from="-238798011" to="-767626960#1"/>
    <trip id="veh78" type="veh_passenger" depart="1720.25" departLane="best" from="184815465#1" to="238798011"/>
    <trip id="veh79" type="veh_passenger" depart="1742.31" departLane="best" from="-238798016" to="-184815465#3"/>
    <trip id="veh80" type="veh_passenger" depart="1764.36" departLane="best" departSpeed="max" from="767626960#0" to="310699113"/>
    <trip id="veh81" type="veh_passenger" depart="1786.42" departLane="best" from="184815465#1" to="238798011"/>
    <trip id="veh82" type="veh_passenger" depart="1808.47" departLane="best" from="-238798016" to="-767626960#0"/>
    <trip id="veh83" type="veh_passenger" depart="1830.52" departLane="best" from="-238798016" to="-406043336#2"/>
    <trip id="veh84" type="veh_passenger" depart="1852.58" departLane="best" from="-184815465#0" to="-767626960#1"/>
    <trip id="veh85" type="veh_passenger" depart="1874.63" departLane="best" from="-31053075#1" to="73261783#2"/>
    <trip id="veh86" type="veh_passenger" depart="1896.69" departLane="best" departSpeed="max" from="767626960#0" to="434566255"/>
    <trip id="veh87" type="veh_passenger" depart="1918.74" departLane="best" from="406043336#2" to="238798016"/>
    <trip id="veh88" type="veh_passenger" depart="1940.80" departLane="best" from="73261783#0" to="238798014"/>
    <trip id="veh89" type="veh_passenger" depart="1962.85" departLane="best" from="-434566255" to="-406043336#2"/>
    <trip id="veh90" type="veh_passenger" depart="1984.91" departLane="best" from="-238798016" to="-767626960#0"/>
    <trip id="veh91" type="veh_passenger" depart="2006.96" departLane="best" departSpeed="max" from="-238798011" to="-184815465#3"/>
    <trip id="veh92" type="veh_passenger" depart="2029.01" departLane="best" from="184815465#2" to="172951992#2"/>
    <trip id="veh93" type="veh_passenger" depart="2051.07" departLane="best" from="-238798014" to="-406043336#0"/>
    <trip id="veh94" type="veh_passenger" depart="2073.12" departLane="best" from="-1107344739" to="31053075#2"/>
    <trip id="veh95" type="veh_passenger" depart="2095.18" departLane="best" from="-238798014" to="-406043336#0"/>
    <trip id="veh96" type="veh_passenger" depart="2117.23" departLane="best" from="-31053075#4" to="172951992#2"/>
    <trip id="veh97" type="veh_passenger" depart="2139.29" departLane="best" from="73261783#1" to="172951992#2"/>
    <trip id="veh98" type="veh_passenger" depart="2161.34" departLane="best" from="184815465#0" to="434566255"/>
    <trip id="veh99" type="veh_passenger" depart="2183.40" departLane="best" departSpeed="max" from="767626960#0" to="172951992#2"/>
    <trip id="veh100" type="veh_passenger" depart="2205.45" departLane="best" departSpeed="max" from="767626960#0" to="31053075#2"/>
    <trip id="veh101" type="veh_passenger" depart="2227.51" departLane="best" from="406043336#0" to="434566255"/>
    <trip id="veh102" type="veh_passenger" depart="2249.56" departLane="best" from="73261783#0" to="238798011"/>
    <trip id="veh103" type="veh_passenger" depart="2271.61" departLane="best" departSpeed="max" from="-238798011" to="-73261783#2"/>
    <trip id="veh104" type="veh_passenger" depart="2293.67" departLane="best" from="406043336#2" to="434566255"/>
    <trip id="veh105" type="veh_passenger" depart="2315.72" departLane="best" from="1181320300" to="238798016"/>
    <trip id="veh106" type="veh_passenger" depart="2337.78" departLane="best" from="310699113" to="73261783#2"/>
    <trip id="veh107" type="veh_passenger" depart="2359.83" departLane="best" from="-238798015" to="-310699113"/>
    <trip id="veh108" type="veh_passenger" depart="2381.89" departLane="best" from="767626960#0" to="406043336#2"/>
    <trip id="veh109" type="veh_passenger" depart="2403.94" departLane="best" from="-1181320300" to="31053075#1"/>
    <trip id="veh110" type="veh_passenger" depart="2426.00" departLane="best" from="767626960#1" to="406043336#1"/>
    <trip id="veh111" type="veh_passenger" depart="2448.05" departLane="best" from="-238798014" to="-767626960#0"/>
    <trip id="veh112" type="veh_passenger" depart="2470.11" departLane="best" from="767626960#2" to="172951992#1"/>
    <trip id="veh113" type="veh_passenger" depart="2492.16" departLane="best" departSpeed="max" from="767626960#0" to="184815465#3"/>
    <trip id="veh114" type="veh_passenger" depart="2514.21" departLane="best" from="767626960#2" to="31053075#0"/>
    <trip id="veh115" type="veh_passenger" depart="2536.27" departLane="best" from="767626960#1" to="406043336#0"/>
    <trip id="veh116" type="veh_passenger" depart="2558.32" departLane="best" from="-184815465#3" to="-767626960#0"/>
    <trip id="veh117" type="veh_passenger" depart="2580.38" departLane="best" from="-31053075#3" to="434566255"/>
    <trip id="veh118" type="veh_passenger" depart="2602.43" departLane="best" from="184815465#2" to="172951992#0"/>
    <trip id="veh119" type="veh_passenger" depart="2624.49" departLane="best" from="-434566255" to="-184815465#1"/>
    <trip id="veh120" type="veh_passenger" depart="2646.54" departLane="best" from="-31053075#0" to="238798015"/>
    <trip id="veh121" type="veh_passenger" depart="2668.60" departLane="best" from="-1107344739" to="-73261783#2"/>
    <trip id="veh122" type="veh_passenger" depart="2690.65" departLane="best" from="172951992#0" to="238798015"/>
    <trip id="veh123" type="veh_passenger" depart="2712.70" departLane="best" from="-31053075#4" to="238798011"/>
    <trip id="veh124" type="veh_passenger" depart="2734.76" departLane="best" from="-238798016" to="-73261783#0"/>
    <trip id="veh125" type="veh_passenger" depart="2756.81" departLane="best" from="-31053075#4" to="-767626960#0"/>
    <trip id="veh126" type="veh_passenger" depart="2778.87" departLane="best" departSpeed="max" from="-238798011" to="-767626960#0"/>
    <trip id="veh127" type="veh_passenger" depart="2800.92" departLane="best" departSpeed="max" from="767626960#0" to="238798011"/>
    <trip id="veh128" type="veh_passenger" depart="2822.98" departLane="best" departSpeed="max" from="767626960#0" to="238798011"/>
    <trip id="veh129" type="veh_passenger" depart="2845.03" departLane="best" from="-31053075#3" to="172951992#2"/>
    <trip id="veh130" type="veh_passenger" depart="2867.09" departLane="best" from="-1107344739" to="-406043336#1"/>
    <trip id="veh131" type="veh_passenger" depart="2889.14" departLane="best" from="-238798015" to="-767626960#2"/>
    <trip id="veh132" type="veh_passenger" depart="2911.20" departLane="best" from="-73261783#2" to="31053075#2"/>
    <trip id="veh133" type="veh_passenger" depart="2933.25" departLane="best" from="767626960#1" to="73261783#0"/>
    <trip id="veh134" type="veh_passenger" depart="2955.30" departLane="best" from="184815465#1" to="172951992#0"/>
    <trip id="veh135" type="veh_passenger" depart="2977.36" departLane="best" from="-238798014" to="-73261783#0"/>
    <trip id="veh136" type="veh_passenger" depart="2999.41" departLane="best" from="-434566255" to="31053075#0"/>
    <trip id="veh137" type="veh_passenger" depart="3021.47" departLane="best" from="-238798016" to="31053075#3"/>
    <trip id="veh138" type="veh_passenger" depart="3043.52" departLane="best" departSpeed="max" from="-238798011" to="-1181320300"/>
    <trip id="veh139" type="veh_passenger" depart="3065.58" departLane="best" from="-238798016" to="-767626960#2"/>
    <trip id="veh140" type="veh_passenger" depart="3087.63" departLane="best" from="73261783#0" to="238798011"/>
    <trip id="veh141" type="veh_passenger" depart="3109.69" departLane="best" from="-184815465#2" to="-767626960#0"/>
    <trip id="veh142" type="veh_passenger" depart="3131.74" departLane="best" departSpeed="max" from="-238798011" to="-767626960#1"/>
    <trip id="veh143" type="veh_passenger" depart="3153.79" departLane="best" from="767626960#0" to="31053075#4"/>
    <trip id="veh144" type="veh_passenger" depart="3175.85" departLane="best" from="-238798016" to="-801048959"/>
    <trip id="veh145" type="veh_passenger" depart="3197.90" departLane="best" from="-184815465#1" to="-767626960#0"/>
    <trip id="veh146" type="veh_passenger" depart="3219.96" departLane="best" departSpeed="max" from="767626960#0" to="184815465#3"/>
    <trip id="veh147" type="veh_passenger" depart="3242.01" departLane="best" from="-31053075#2" to="1181320300"/>
    <trip id="veh148" type="veh_passenger" depart="3264.07" departLane="best" departSpeed="max" from="767626960#0" to="31053075#0"/>
    <trip id="veh149" type="veh_passenger" depart="3286.12" departLane="best" from="767626960#1" to="310699113"/>
    <trip id="veh150" type="veh_passenger" depart="3308.18" departLane="best" from="-31053075#0" to="238798011"/>
    <trip id="veh151" type="veh_passenger" depart="3330.23" departLane="best" from="310699113" to="172951992#0"/>
    <trip id="veh152" type="veh_passenger" depart="3352.29" departLane="best" from="-31053075#1" to="434566255"/>
    <trip id="veh153" type="veh_passenger" depart="3374.34" departLane="best" from="172951992#1" to="238798014"/>
    <trip id="veh154" type="veh_passenger" depart="3396.39" departLane="best" from="73261783#0" to="172951992#2"/>
    <trip id="veh155" type="veh_passenger" depart="3418.45" departLane="best" from="184815465#0" to="238798014"/>
    <trip id="veh156" type="veh_passenger" depart="3440.50" departLane="best" from="406043336#2" to="172951992#2"/>
    <trip id="veh157" type="veh_passenger" depart="3462.56" departLane="best" from="-73261783#1" to="-767626960#0"/>
    <trip id="veh158" type="veh_passenger" depart="3484.61" departLane="best" from="-172951992#1" to="-184815465#3"/>
    <trip id="veh159" type="veh_passenger" depart="3506.67" departLane="best" from="-238798015" to="31053075#3"/>
    <trip id="veh160" type="veh_passenger" depart="3528.72" departLane="best" from="310699113" to="238798011"/>
    <trip id="veh161" type="veh_passenger" depart="3550.78" departLane="best" from="73261783#0" to="238798016"/>
    <trip id="veh162" type="veh_passenger" depart="3572.83" departLane="best" from="767626960#1" to="238798014"/>
    <trip id="veh163" type="veh_passenger" depart="3594.89" departLane="best" from="184815465#3" to="1181320300"/>
</routes>
