<?xml version="1.0" encoding="UTF-8"?>

<!-- generated on 2025-04-21 16:40:03 by Eclipse SUMO netconvert Version 1.22.0
<netconvertConfiguration xmlns:xsi="http://www.w3.org/2001/XMLSchema-instance" xsi:noNamespaceSchemaLocation="http://sumo.dlr.de/xsd/netconvertConfiguration.xsd">

    <input>
        <type-files value="${SUMO_HOME}/data/typemap/osmNetconvert.typ.xml"/>
        <osm-files value="osm_bbox.osm.xml.gz"/>
    </input>

    <output>
        <output-file value="osm.net.xml.gz"/>
        <output.street-names value="true"/>
        <output.original-names value="true"/>
    </output>

    <projection>
        <proj.utm value="true"/>
    </projection>

    <processing>
        <geometry.remove value="true"/>
        <roundabouts.guess value="true"/>
    </processing>

    <tls_building>
        <tls.discard-simple value="true"/>
        <tls.join value="true"/>
        <tls.guess-signals value="true"/>
        <tls.default-type value="actuated"/>
    </tls_building>

    <ramp_guessing>
        <ramps.guess value="true"/>
    </ramp_guessing>

    <junctions>
        <junctions.join value="true"/>
        <junctions.corner-detail value="5"/>
    </junctions>

</netconvertConfiguration>
-->

<net version="1.20" junctionCornerDetail="5" limitTurnSpeed="5.50" xmlns:xsi="http://www.w3.org/2001/XMLSchema-instance" xsi:noNamespaceSchemaLocation="http://sumo.dlr.de/xsd/net_file.xsd">

    <location netOffset="-411961.50,-6180409.48" convBoundary="0.00,0.00,1008.41,743.60" origBoundary="37.596922,55.761474,37.612862,55.768054" projParameter="+proj=utm +zone=37 +ellps=WGS84 +datum=WGS84 +units=m +no_defs"/>

    <type id="highway.cycleway" priority="1" numLanes="1" speed="5.56" allow="bicycle" oneway="0" width="2.00"/>
    <type id="highway.footway" priority="1" numLanes="1" speed="2.78" allow="pedestrian" oneway="1" width="2.00"/>
    <type id="highway.living_street" priority="2" numLanes="1" speed="2.78" disallow="tram rail_urban rail rail_electric rail_fast ship container cable_car subway aircraft wheelchair scooter drone" oneway="0"/>
    <type id="highway.pedestrian" priority="1" numLanes="1" speed="2.78" allow="pedestrian" oneway="1" width="2.00"/>
    <type id="highway.primary" priority="12" numLanes="2" speed="27.78" disallow="tram rail_urban rail rail_electric rail_fast ship container cable_car subway aircraft wheelchair scooter drone" oneway="0"/>
    <type id="highway.residential" priority="3" numLanes="1" speed="13.89" disallow="tram rail_urban rail rail_electric rail_fast ship container cable_car subway aircraft wheelchair scooter drone" oneway="0"/>
    <type id="highway.secondary" priority="11" numLanes="1" speed="27.78" disallow="tram rail_urban rail rail_electric rail_fast ship container cable_car subway aircraft wheelchair scooter drone" oneway="0"/>
    <type id="highway.service" priority="1" numLanes="1" speed="5.56" allow="pedestrian delivery bicycle" oneway="0"/>
    <type id="highway.steps" priority="1" numLanes="1" speed="1.39" allow="pedestrian" oneway="1" width="2.00"/>
    <type id="highway.tertiary" priority="10" numLanes="1" speed="22.22" disallow="tram rail_urban rail rail_electric rail_fast ship container cable_car subway aircraft wheelchair scooter drone" oneway="0"/>
    <type id="highway.unclassified" priority="4" numLanes="1" speed="13.89" disallow="tram rail_urban rail rail_electric rail_fast ship container cable_car subway aircraft wheelchair scooter drone" oneway="0"/>
    <type id="railway.subway" priority="18" numLanes="1" speed="27.78" allow="subway" oneway="1"/>

    <edge id=":10695866740_0" function="internal">
        <lane id=":10695866740_0_0" index="0" allow="pedestrian delivery bicycle" speed="5.56" length="5.00" shape="782.06,116.69 779.30,120.85"/>
    </edge>
    <edge id=":10695866740_1" function="internal">
        <lane id=":10695866740_1_0" index="0" allow="pedestrian delivery bicycle" speed="3.65" length="4.67" shape="782.06,116.69 780.73,117.24 779.85,117.14 779.40,116.36 779.40,114.92"/>
    </edge>
    <edge id=":10695866740_2" function="internal">
        <lane id=":10695866740_2_0" index="0" allow="pedestrian delivery bicycle" speed="5.56" length="5.00" shape="776.63,119.09 779.40,114.92"/>
    </edge>
    <edge id=":10695866740_3" function="internal">
        <lane id=":10695866740_3_0" index="0" allow="pedestrian delivery bicycle" speed="3.65" length="4.67" shape="776.63,119.09 777.96,118.53 778.85,118.64 779.30,119.41 779.30,120.85"/>
    </edge>
    <edge id=":10698175388_0" function="internal">
        <lane id=":10698175388_0_0" index="0" allow="pedestrian delivery bicycle" speed="3.65" length="4.67" shape="772.49,406.35 773.83,405.82 774.72,405.95 775.14,406.74 775.12,408.18"/>
    </edge>
    <edge id=":10698175397_0" function="internal">
        <lane id=":10698175397_0_0" index="0" allow="pedestrian delivery bicycle" speed="3.65" length="4.67" shape="640.48,320.73 639.92,319.41 640.02,318.52 640.80,318.07 642.24,318.06"/>
    </edge>
    <edge id=":10698175404_0" function="internal">
        <lane id=":10698175404_0_0" index="0" allow="pedestrian delivery bicycle" speed="3.65" length="4.67" shape="718.46,298.42 719.06,299.73 718.98,300.63 718.22,301.10 716.78,301.15"/>
    </edge>
    <edge id=":10698200832_0" function="internal">
        <lane id=":10698200832_0_0" index="0" allow="pedestrian delivery bicycle" speed="3.65" length="4.67" shape="780.20,196.22 779.60,194.91 779.69,194.02 780.45,193.55 781.89,193.51"/>
    </edge>
    <edge id=":10698200837_0" function="internal">
        <lane id=":10698200837_0_0" index="0" allow="pedestrian delivery bicycle" speed="5.56" length="5.01" shape="844.90,237.90 840.65,235.26"/>
    </edge>
    <edge id=":10698200837_1" function="internal">
        <lane id=":10698200837_1_0" index="0" allow="pedestrian delivery bicycle" speed="3.65" length="1.44" shape="844.90,237.90 844.31,236.59"/>
    </edge>
    <edge id=":10698200837_4" function="internal">
        <lane id=":10698200837_4_0" index="0" allow="pedestrian delivery bicycle" speed="3.65" length="3.23" shape="844.31,236.59 844.39,235.70 845.15,235.23 846.59,235.19"/>
    </edge>
    <edge id=":10698200837_2" function="internal">
        <lane id=":10698200837_2_0" index="0" allow="pedestrian delivery bicycle" speed="5.56" length="5.01" shape="842.33,232.54 846.59,235.19"/>
    </edge>
    <edge id=":10698200837_3" function="internal">
        <lane id=":10698200837_3_0" index="0" allow="pedestrian delivery bicycle" speed="3.65" length="1.44" shape="842.33,232.54 842.93,233.85"/>
    </edge>
    <edge id=":10698200837_5" function="internal">
        <lane id=":10698200837_5_0" index="0" allow="pedestrian delivery bicycle" speed="3.65" length="3.23" shape="842.93,233.85 842.85,234.75 842.09,235.21 840.65,235.26"/>
    </edge>
    <edge id=":10698200838_0" function="internal">
        <lane id=":10698200838_0_0" index="0" allow="pedestrian delivery bicycle" speed="5.56" length="5.00" shape="835.09,257.37 830.60,255.18"/>
    </edge>
    <edge id=":10698200838_1" function="internal">
        <lane id=":10698200838_1_0" index="0" allow="pedestrian delivery bicycle" speed="3.65" length="4.67" shape="835.09,257.37 834.37,256.12 834.36,255.23 835.07,254.68 836.50,254.49"/>
    </edge>
    <edge id=":10698200838_2" function="internal">
        <lane id=":10698200838_2_0" index="0" allow="pedestrian delivery bicycle" speed="5.56" length="5.00" shape="832.00,252.30 836.50,254.49"/>
    </edge>
    <edge id=":10698200838_3" function="internal">
        <lane id=":10698200838_3_0" index="0" allow="pedestrian delivery bicycle" speed="3.65" length="4.67" shape="832.00,252.30 832.73,253.54 832.74,254.44 832.03,254.98 830.60,255.18"/>
    </edge>
    <edge id=":10698200839_0" function="internal">
        <lane id=":10698200839_0_0" index="0" allow="pedestrian delivery bicycle" speed="3.65" length="4.67" shape="822.54,251.24 821.81,250.00 821.80,249.10 822.51,248.56 823.94,248.37"/>
    </edge>
    <edge id=":10698200847_0" function="internal">
        <lane id=":10698200847_0_0" index="0" allow="pedestrian delivery bicycle" speed="3.65" length="4.67" shape="893.87,279.91 894.47,281.23 894.39,282.12 893.62,282.58 892.18,282.63"/>
    </edge>
    <edge id=":10714123880_0" function="internal">
        <lane id=":10714123880_0_0" index="0" allow="pedestrian delivery bicycle" speed="3.65" length="4.67" shape="244.60,115.24 246.00,114.90 246.86,115.15 247.18,115.98 246.96,117.41"/>
    </edge>
    <edge id=":10715494447_0" function="internal">
        <lane id=":10715494447_0_0" index="0" allow="pedestrian delivery bicycle" speed="5.56" length="3.75" shape="245.93,118.53 243.39,121.29"/>
    </edge>
    <edge id=":10715494447_1" function="internal">
        <lane id=":10715494447_1_0" index="0" allow="pedestrian delivery bicycle" speed="3.65" length="4.67" shape="245.93,118.53 244.53,118.87 243.67,118.62 243.35,117.79 243.57,116.36"/>
    </edge>
    <edge id=":10715494447_2" function="internal">
        <lane id=":10715494447_2_0" index="0" allow="pedestrian delivery bicycle" speed="5.56" length="3.75" shape="241.03,119.12 243.57,116.36"/>
    </edge>
    <edge id=":10715494447_3" function="internal">
        <lane id=":10715494447_3_0" index="0" allow="pedestrian delivery bicycle" speed="3.65" length="4.67" shape="241.03,119.12 242.44,118.78 243.29,119.03 243.61,119.86 243.39,121.29"/>
    </edge>
    <edge id=":10847132625_0" function="internal">
        <lane id=":10847132625_0_0" index="0" allow="pedestrian delivery bicycle" speed="5.56" length="5.00" shape="117.99,608.45 115.09,612.52"/>
    </edge>
    <edge id=":10847132625_1" function="internal">
        <lane id=":10847132625_1_0" index="0" allow="pedestrian delivery bicycle" speed="3.65" length="1.44" shape="117.99,608.45 116.64,608.97"/>
    </edge>
    <edge id=":10847132625_4" function="internal">
        <lane id=":10847132625_4_0" index="0" allow="pedestrian delivery bicycle" speed="3.65" length="3.23" shape="116.64,608.97 115.76,608.83 115.34,608.04 115.39,606.59"/>
    </edge>
    <edge id=":10847132625_2" function="internal">
        <lane id=":10847132625_2_0" index="0" allow="pedestrian delivery bicycle" speed="5.56" length="5.00" shape="112.48,610.67 115.39,606.59"/>
    </edge>
    <edge id=":10847132625_3" function="internal">
        <lane id=":10847132625_3_0" index="0" allow="pedestrian delivery bicycle" speed="3.65" length="1.44" shape="112.48,610.67 113.83,610.15"/>
    </edge>
    <edge id=":10847132625_5" function="internal">
        <lane id=":10847132625_5_0" index="0" allow="pedestrian delivery bicycle" speed="3.65" length="3.23" shape="113.83,610.15 114.72,610.29 115.14,611.08 115.09,612.52"/>
    </edge>
    <edge id=":10847132630_0" function="internal">
        <lane id=":10847132630_0_0" index="0" allow="pedestrian delivery bicycle" speed="5.56" length="5.00" shape="134.22,585.71 131.31,589.79"/>
    </edge>
    <edge id=":10847132630_1" function="internal">
        <lane id=":10847132630_1_0" index="0" allow="pedestrian delivery bicycle" speed="3.65" length="1.44" shape="134.22,585.71 132.87,586.23"/>
    </edge>
    <edge id=":10847132630_4" function="internal">
        <lane id=":10847132630_4_0" index="0" allow="pedestrian delivery bicycle" speed="3.65" length="3.23" shape="132.87,586.23 131.98,586.09 131.56,585.30 131.61,583.86"/>
    </edge>
    <edge id=":10847132630_2" function="internal">
        <lane id=":10847132630_2_0" index="0" allow="pedestrian delivery bicycle" speed="5.56" length="5.00" shape="128.71,587.93 131.61,583.86"/>
    </edge>
    <edge id=":10847132630_3" function="internal">
        <lane id=":10847132630_3_0" index="0" allow="pedestrian delivery bicycle" speed="3.65" length="1.44" shape="128.71,587.93 130.05,587.41"/>
    </edge>
    <edge id=":10847132630_5" function="internal">
        <lane id=":10847132630_5_0" index="0" allow="pedestrian delivery bicycle" speed="3.65" length="3.23" shape="130.05,587.41 130.94,587.55 131.36,588.34 131.31,589.79"/>
    </edge>
    <edge id=":10847132654_0" function="internal">
        <lane id=":10847132654_0_0" index="0" allow="pedestrian delivery bicycle" speed="3.65" length="4.67" shape="117.27,667.76 116.79,666.40 116.96,665.52 117.76,665.12 119.20,665.21"/>
    </edge>
    <edge id=":10847132678_0" function="internal">
        <lane id=":10847132678_0_0" index="0" allow="pedestrian delivery bicycle" speed="3.65" length="4.67" shape="87.15,735.61 86.73,734.23 86.92,733.36 87.74,732.99 89.17,733.13"/>
    </edge>
    <edge id=":10847132680_0" function="internal">
        <lane id=":10847132680_0_0" index="0" allow="pedestrian delivery bicycle" speed="3.65" length="4.67" shape="61.41,719.14 61.02,717.75 61.24,716.88 62.06,716.53 63.49,716.71"/>
    </edge>
    <edge id=":11290920064_0" function="internal">
        <lane id=":11290920064_0_0" index="0" disallow="tram rail_urban rail rail_electric rail_fast ship container cable_car subway aircraft wheelchair scooter drone" speed="8.33" length="5.07" shape="66.25,653.58 64.97,648.68"/>
        <lane id=":11290920064_0_1" index="1" disallow="tram rail_urban rail rail_electric rail_fast ship container cable_car subway aircraft wheelchair scooter drone" speed="8.33" length="5.07" shape="69.35,652.77 68.06,647.87"/>
    </edge>
    <edge id=":11329997569_0" function="internal">
        <lane id=":11329997569_0_0" index="0" allow="pedestrian delivery bicycle" speed="3.65" length="4.67" shape="338.08,478.24 337.79,476.83 338.08,475.98 338.92,475.69 340.34,475.98"/>
    </edge>
    <edge id=":11329997573_0" function="internal">
        <lane id=":11329997573_0_0" index="0" allow="pedestrian delivery bicycle" speed="3.65" length="4.67" shape="212.58,348.75 211.26,349.34 210.37,349.25 209.91,348.48 209.88,347.04"/>
    </edge>
    <edge id=":11329997574_0" function="internal">
        <lane id=":11329997574_0_0" index="0" allow="pedestrian delivery bicycle" speed="5.56" length="7.94" shape="221.96,337.82 220.70,338.11 219.33,339.06 217.84,340.68 216.25,342.95"/>
    </edge>
    <edge id=":11329997574_1" function="internal">
        <lane id=":11329997574_1_0" index="0" allow="pedestrian delivery bicycle" speed="5.56" length="10.42" shape="221.96,337.82 211.55,337.47"/>
    </edge>
    <edge id=":11329997574_2" function="internal">
        <lane id=":11329997574_2_0" index="0" allow="pedestrian delivery bicycle" speed="3.65" length="4.67" shape="221.96,337.82 220.79,336.98 220.42,336.17 220.84,335.38 222.07,334.62"/>
    </edge>
    <edge id=":11329997574_3" function="internal">
        <lane id=":11329997574_3_0" index="0" allow="pedestrian delivery bicycle" speed="5.56" length="10.42" shape="211.66,334.27 222.07,334.62"/>
    </edge>
    <edge id=":11329997574_4" function="internal">
        <lane id=":11329997574_4_0" index="0" allow="pedestrian delivery bicycle" speed="5.56" length="13.45" shape="211.66,334.27 215.65,334.94 217.74,336.61 217.94,339.28 216.25,342.95"/>
    </edge>
    <edge id=":11329997574_5" function="internal">
        <lane id=":11329997574_5_0" index="0" allow="pedestrian delivery bicycle" speed="3.65" length="4.67" shape="211.66,334.27 212.83,335.11 213.20,335.92 212.78,336.71 211.55,337.47"/>
    </edge>
    <edge id=":11329997574_6" function="internal">
        <lane id=":11329997574_6_0" index="0" allow="pedestrian delivery bicycle" speed="4.68" length="5.84" shape="213.55,341.24 214.28,339.64 214.19,338.48 213.28,337.76 211.55,337.47"/>
    </edge>
    <edge id=":11329997574_7" function="internal">
        <lane id=":11329997574_7_0" index="0" allow="pedestrian delivery bicycle" speed="5.56" length="11.24" shape="213.55,341.24 215.68,338.29 217.82,336.20 219.95,334.98 222.07,334.62"/>
    </edge>
    <edge id=":11329997574_8" function="internal">
        <lane id=":11329997574_8_0" index="0" allow="pedestrian delivery bicycle" speed="3.65" length="4.67" shape="213.55,341.24 214.86,340.65 215.75,340.74 216.22,341.51 216.25,342.95"/>
    </edge>
    <edge id=":11343283500_0" function="internal">
        <lane id=":11343283500_0_0" index="0" allow="pedestrian delivery bicycle" speed="5.56" length="5.92" shape="192.20,35.45 190.87,34.13 189.58,33.36 188.32,33.15 187.11,33.50"/>
    </edge>
    <edge id=":11343283500_1" function="internal">
        <lane id=":11343283500_1_0" index="0" allow="pedestrian delivery bicycle" speed="5.56" length="11.30" shape="192.20,35.45 190.51,32.74 190.24,30.30 191.41,28.14 194.00,26.26"/>
    </edge>
    <edge id=":11343283500_2" function="internal">
        <lane id=":11343283500_2_0" index="0" allow="pedestrian delivery bicycle" speed="3.65" length="4.67" shape="192.20,35.45 192.04,34.02 192.39,33.20 193.26,32.99 194.65,33.39"/>
    </edge>
    <edge id=":11343283500_3" function="internal">
        <lane id=":11343283500_3_0" index="0" allow="pedestrian delivery bicycle" speed="4.84" length="5.28" shape="195.49,29.10 194.28,29.97 193.73,30.98 193.86,32.12 194.65,33.39"/>
    </edge>
    <edge id=":11343283500_4" function="internal">
        <lane id=":11343283500_4_0" index="0" allow="pedestrian delivery bicycle" speed="5.56" length="9.47" shape="195.49,29.10 187.11,33.50"/>
    </edge>
    <edge id=":11343283500_5" function="internal">
        <lane id=":11343283500_5_0" index="0" allow="pedestrian delivery bicycle" speed="3.65" length="4.67" shape="195.49,29.10 194.05,28.95 193.33,28.43 193.31,27.53 194.00,26.26"/>
    </edge>
    <edge id=":11343283500_6" function="internal">
        <lane id=":11343283500_6_0" index="0" allow="pedestrian delivery bicycle" speed="5.56" length="9.32" shape="185.65,30.33 187.23,29.90 189.85,28.59 192.45,27.14 194.00,26.26"/>
    </edge>
    <edge id=":11343283500_7" function="internal">
        <lane id=":11343283500_7_0" index="0" allow="pedestrian delivery bicycle" speed="5.56" length="9.81" shape="185.65,30.33 188.52,30.96 190.68,31.08 192.58,31.60 194.65,33.39"/>
    </edge>
    <edge id=":11343283500_8" function="internal">
        <lane id=":11343283500_8_0" index="0" allow="pedestrian delivery bicycle" speed="4.25" length="5.10" shape="185.65,30.33 187.20,30.58 187.97,31.19 187.93,32.16 187.11,33.50"/>
    </edge>
    <edge id=":11343283519_0" function="internal">
        <lane id=":11343283519_0_0" index="0" allow="delivery bicycle" speed="4.98" length="4.85" shape="286.08,24.64 285.25,23.55 284.29,22.98 283.22,22.93 282.01,23.39"/>
    </edge>
    <edge id=":11343283519_1" function="internal">
        <lane id=":11343283519_1_0" index="0" allow="pedestrian delivery bicycle" speed="3.65" length="4.67" shape="280.35,20.65 281.80,20.72 282.55,21.19 282.62,22.09 282.01,23.39"/>
    </edge>
    <edge id=":11343283653_0" function="internal">
        <lane id=":11343283653_0_0" index="0" allow="pedestrian delivery bicycle" speed="3.65" length="4.67" shape="319.83,495.85 320.14,497.26 319.87,498.11 319.03,498.41 317.61,498.15"/>
    </edge>
    <edge id=":11450658580_0" function="internal">
        <lane id=":11450658580_0_0" index="0" allow="subway" speed="27.78" length="0.10" shape="870.33,482.47 870.33,482.47"/>
    </edge>
    <edge id=":11450658581_0" function="internal">
        <lane id=":11450658581_0_0" index="0" allow="subway" speed="27.78" length="0.10" shape="867.57,452.01 867.57,452.01"/>
    </edge>
    <edge id=":1154549937_0" function="internal">
        <lane id=":1154549937_0_0" index="0" allow="pedestrian delivery bicycle" speed="5.56" length="4.26" shape="465.71,552.14 463.06,555.48"/>
    </edge>
    <edge id=":1154549937_1" function="internal">
        <lane id=":1154549937_1_0" index="0" allow="pedestrian delivery bicycle" speed="3.65" length="1.44" shape="465.71,552.14 464.34,552.59"/>
    </edge>
    <edge id=":1154549937_4" function="internal">
        <lane id=":1154549937_4_0" index="0" allow="pedestrian delivery bicycle" speed="3.65" length="3.23" shape="464.34,552.59 463.46,552.40 463.08,551.59 463.20,550.15"/>
    </edge>
    <edge id=":1154549937_2" function="internal">
        <lane id=":1154549937_2_0" index="0" allow="pedestrian delivery bicycle" speed="5.56" length="4.76" shape="460.24,553.88 463.20,550.15"/>
    </edge>
    <edge id=":1154549937_3" function="internal">
        <lane id=":1154549937_3_0" index="0" allow="pedestrian delivery bicycle" speed="3.66" length="1.46" shape="460.24,553.88 461.55,553.23"/>
    </edge>
    <edge id=":1154549937_5" function="internal">
        <lane id=":1154549937_5_0" index="0" allow="pedestrian delivery bicycle" speed="3.66" length="3.27" shape="461.55,553.23 462.45,553.28 462.95,554.03 463.06,555.48"/>
    </edge>
    <edge id=":1154550118_0" function="internal">
        <lane id=":1154550118_0_0" index="0" allow="pedestrian delivery bicycle" speed="3.65" length="4.67" shape="512.51,614.25 511.90,612.95 511.96,612.06 512.72,611.58 514.16,611.51"/>
    </edge>
    <edge id=":1154550263_0" function="internal">
        <lane id=":1154550263_0_0" index="0" allow="delivery bicycle" speed="5.22" length="4.95" shape="549.10,502.53 548.01,501.96 546.91,501.87 545.81,502.28 544.69,503.19"/>
    </edge>
    <edge id=":1154550263_1" function="internal">
        <lane id=":1154550263_1_0" index="0" disallow="pedestrian tram rail_urban rail rail_electric rail_fast ship container cable_car subway aircraft wheelchair scooter drone" speed="13.89" length="9.42" shape="549.10,502.53 541.61,496.83"/>
        <lane id=":1154550263_1_1" index="1" disallow="pedestrian tram rail_urban rail rail_electric rail_fast ship container cable_car subway aircraft wheelchair scooter drone" speed="13.89" length="9.42" shape="551.04,499.99 543.55,494.28"/>
        <lane id=":1154550263_1_2" index="2" disallow="pedestrian tram rail_urban rail rail_electric rail_fast ship container cable_car subway aircraft wheelchair scooter drone" speed="13.89" length="9.42" shape="552.98,497.45 545.48,491.73"/>
        <lane id=":1154550263_1_3" index="3" disallow="pedestrian tram rail_urban rail rail_electric rail_fast ship container cable_car subway aircraft wheelchair scooter drone" speed="13.89" length="9.42" shape="554.92,494.91 547.42,489.19"/>
    </edge>
    <edge id=":1154550263_5" function="internal">
        <lane id=":1154550263_5_0" index="0" allow="delivery bicycle" speed="5.00" length="5.36" shape="542.00,501.38 542.86,500.17 543.09,499.01 542.67,497.90 541.61,496.83"/>
        <lane id=":1154550263_5_1" index="1" allow="delivery bicycle" speed="6.03" length="8.31" shape="542.00,501.38 543.82,499.15 544.69,497.22 544.60,495.60 543.55,494.28"/>
    </edge>
    <edge id=":1154550263_7" function="internal">
        <lane id=":1154550263_7_0" index="0" allow="pedestrian delivery bicycle" speed="3.67" length="4.75" shape="542.00,501.38 543.35,500.82 544.25,500.93 544.70,501.73 544.69,503.19"/>
    </edge>
    <edge id=":1154550596_0" function="internal">
        <lane id=":1154550596_0_0" index="0" allow="pedestrian delivery bicycle" speed="3.65" length="4.67" shape="576.92,610.81 578.00,611.76 578.29,612.61 577.79,613.35 576.49,613.98"/>
    </edge>
    <edge id=":1154550843_0" function="internal">
        <lane id=":1154550843_0_0" index="0" allow="pedestrian delivery bicycle" speed="5.24" length="5.28" shape="504.36,557.56 503.04,556.80 501.82,556.59 500.70,556.93 499.68,557.82"/>
    </edge>
    <edge id=":1154550843_1" function="internal">
        <lane id=":1154550843_1_0" index="0" allow="pedestrian delivery bicycle" speed="5.56" length="10.55" shape="504.36,557.56 502.30,555.49 501.45,553.29 501.83,550.97 503.42,548.52"/>
    </edge>
    <edge id=":1154550843_2" function="internal">
        <lane id=":1154550843_2_0" index="0" allow="pedestrian delivery bicycle" speed="3.65" length="4.67" shape="504.36,557.56 503.88,556.20 504.04,555.32 504.84,554.92 506.28,554.99"/>
    </edge>
    <edge id=":1154550843_3" function="internal">
        <lane id=":1154550843_3_0" index="0" allow="pedestrian delivery bicycle" speed="4.96" length="5.09" shape="505.83,550.63 505.06,551.81 504.87,552.94 505.28,554.00 506.28,554.99"/>
    </edge>
    <edge id=":1154550843_4" function="internal">
        <lane id=":1154550843_4_0" index="0" allow="pedestrian delivery bicycle" speed="5.56" length="9.46" shape="505.83,550.63 499.68,557.82"/>
    </edge>
    <edge id=":1154550843_5" function="internal">
        <lane id=":1154550843_5_0" index="0" allow="pedestrian delivery bicycle" speed="3.65" length="4.67" shape="505.83,550.63 504.43,551.01 503.57,550.78 503.23,549.95 503.42,548.52"/>
    </edge>
    <edge id=":1154550843_6" function="internal">
        <lane id=":1154550843_6_0" index="0" allow="pedestrian delivery bicycle" speed="5.56" length="9.54" shape="497.22,555.77 503.42,548.52"/>
    </edge>
    <edge id=":1154550843_7" function="internal">
        <lane id=":1154550843_7_0" index="0" allow="pedestrian delivery bicycle" speed="5.56" length="10.25" shape="497.22,555.77 499.24,553.98 501.42,553.25 503.77,553.59 506.28,554.99"/>
    </edge>
    <edge id=":1154550843_8" function="internal">
        <lane id=":1154550843_8_0" index="0" allow="pedestrian delivery bicycle" speed="3.65" length="4.67" shape="497.22,555.77 498.60,555.36 499.47,555.57 499.83,556.38 499.68,557.82"/>
    </edge>
    <edge id=":1154550890_0" function="internal">
        <lane id=":1154550890_0_0" index="0" allow="pedestrian delivery bicycle" speed="3.65" length="4.67" shape="505.48,540.43 505.94,541.80 505.77,542.68 504.96,543.06 503.52,542.96"/>
    </edge>
    <edge id=":1154551432_0" function="internal">
        <lane id=":1154551432_0_0" index="0" allow="pedestrian delivery bicycle" speed="5.56" length="8.28" shape="506.50,625.59 505.26,625.23 503.51,625.33 501.27,625.90 498.52,626.92"/>
    </edge>
    <edge id=":1154551432_1" function="internal">
        <lane id=":1154551432_1_0" index="0" allow="pedestrian delivery bicycle" speed="5.56" length="10.52" shape="506.50,625.59 497.75,619.74"/>
    </edge>
    <edge id=":1154551432_2" function="internal">
        <lane id=":1154551432_2_0" index="0" allow="pedestrian delivery bicycle" speed="3.65" length="4.67" shape="506.50,625.59 505.87,624.29 505.94,623.40 506.69,622.91 508.13,622.84"/>
    </edge>
    <edge id=":1154551432_3" function="internal">
        <lane id=":1154551432_3_0" index="0" allow="pedestrian delivery bicycle" speed="5.56" length="10.28" shape="499.59,617.12 508.13,622.84"/>
    </edge>
    <edge id=":1154551432_4" function="internal">
        <lane id=":1154551432_4_0" index="0" allow="pedestrian delivery bicycle" speed="5.56" length="13.72" shape="499.59,617.12 502.65,619.93 503.49,622.50 502.12,624.83 498.52,626.92"/>
    </edge>
    <edge id=":1154551432_5" function="internal">
        <lane id=":1154551432_5_0" index="0" allow="pedestrian delivery bicycle" speed="3.65" length="4.67" shape="499.59,617.12 500.11,618.47 499.98,619.35 499.19,619.78 497.75,619.74"/>
    </edge>
    <edge id=":1154551432_6" function="internal">
        <lane id=":1154551432_6_0" index="0" allow="pedestrian delivery bicycle" speed="4.67" length="5.92" shape="497.29,623.97 498.84,623.07 499.43,622.06 499.07,620.95 497.75,619.74"/>
    </edge>
    <edge id=":1154551432_7" function="internal">
        <lane id=":1154551432_7_0" index="0" allow="pedestrian delivery bicycle" speed="5.56" length="11.23" shape="497.29,623.97 500.77,622.73 503.74,622.12 506.19,622.16 508.13,622.84"/>
    </edge>
    <edge id=":1154551432_8" function="internal">
        <lane id=":1154551432_8_0" index="0" allow="pedestrian delivery bicycle" speed="3.65" length="4.67" shape="497.29,623.97 498.70,624.24 499.38,624.83 499.32,625.72 498.52,626.92"/>
    </edge>
    <edge id=":1154551509_0" function="internal">
        <lane id=":1154551509_0_0" index="0" allow="pedestrian delivery bicycle" speed="5.56" length="5.71" shape="533.52,650.72 531.92,650.01 530.48,649.69 529.20,649.77 528.09,650.24"/>
    </edge>
    <edge id=":1154551509_1" function="internal">
        <lane id=":1154551509_1_0" index="0" allow="pedestrian delivery bicycle" speed="5.56" length="10.29" shape="533.52,650.72 531.25,649.04 530.08,647.04 530.02,644.73 531.06,642.10"/>
    </edge>
    <edge id=":1154551509_2" function="internal">
        <lane id=":1154551509_2_0" index="0" allow="pedestrian delivery bicycle" speed="3.65" length="4.67" shape="533.52,650.72 532.85,649.45 532.87,648.55 533.61,648.04 535.04,647.91"/>
    </edge>
    <edge id=":1154551509_3" function="internal">
        <lane id=":1154551509_3_0" index="0" allow="pedestrian delivery bicycle" speed="5.01" length="5.03" shape="533.84,643.69 533.33,644.97 533.36,646.11 533.93,647.08 535.04,647.91"/>
    </edge>
    <edge id=":1154551509_4" function="internal">
        <lane id=":1154551509_4_0" index="0" allow="pedestrian delivery bicycle" speed="5.56" length="8.86" shape="533.84,643.69 532.54,645.97 531.52,647.49 530.23,648.74 528.09,650.24"/>
    </edge>
    <edge id=":1154551509_5" function="internal">
        <lane id=":1154551509_5_0" index="0" allow="pedestrian delivery bicycle" speed="3.65" length="4.67" shape="533.84,643.69 532.55,644.33 531.66,644.28 531.16,643.53 531.06,642.10"/>
    </edge>
    <edge id=":1154551509_6" function="internal">
        <lane id=":1154551509_6_0" index="0" allow="pedestrian delivery bicycle" speed="5.56" length="7.34" shape="526.35,647.55 528.11,646.31 529.17,645.26 530.00,643.99 531.06,642.10"/>
    </edge>
    <edge id=":1154551509_7" function="internal">
        <lane id=":1154551509_7_0" index="0" allow="pedestrian delivery bicycle" speed="5.56" length="9.14" shape="526.35,647.55 528.26,646.69 530.35,646.46 532.61,646.86 535.04,647.91"/>
    </edge>
    <edge id=":1154551509_8" function="internal">
        <lane id=":1154551509_8_0" index="0" allow="pedestrian delivery bicycle" speed="3.65" length="4.67" shape="526.35,647.55 527.79,647.57 528.56,648.02 528.66,648.91 528.09,650.24"/>
    </edge>
    <edge id=":1154551609_0" function="internal">